* NGSPICE file created from lovers_controller.ext - technology: sky130A

* Black-box entry subcircuit for sky130_fd_sc_hd__decap_4 abstract view
.subckt sky130_fd_sc_hd__decap_4 VGND VNB VPB VPWR
.ends

* Black-box entry subcircuit for sky130_fd_sc_hd__mux2_1 abstract view
.subckt sky130_fd_sc_hd__mux2_1 A0 A1 S VGND VNB VPB VPWR X
.ends

* Black-box entry subcircuit for sky130_fd_sc_hd__fill_1 abstract view
.subckt sky130_fd_sc_hd__fill_1 VGND VNB VPB VPWR
.ends

* Black-box entry subcircuit for sky130_fd_sc_hd__fill_2 abstract view
.subckt sky130_fd_sc_hd__fill_2 VGND VNB VPB VPWR
.ends

* Black-box entry subcircuit for sky130_fd_sc_hd__and2_1 abstract view
.subckt sky130_fd_sc_hd__and2_1 A B VGND VNB VPB VPWR X
.ends

* Black-box entry subcircuit for sky130_fd_sc_hd__nand2_1 abstract view
.subckt sky130_fd_sc_hd__nand2_1 A B VGND VNB VPB VPWR Y
.ends

* Black-box entry subcircuit for sky130_fd_sc_hd__decap_8 abstract view
.subckt sky130_fd_sc_hd__decap_8 VGND VNB VPB VPWR
.ends

* Black-box entry subcircuit for sky130_ef_sc_hd__decap_12 abstract view
.subckt sky130_ef_sc_hd__decap_12 VGND VNB VPB VPWR
.ends

* Black-box entry subcircuit for sky130_fd_sc_hd__decap_3 abstract view
.subckt sky130_fd_sc_hd__decap_3 VGND VNB VPB VPWR
.ends

* Black-box entry subcircuit for sky130_fd_sc_hd__o211a_1 abstract view
.subckt sky130_fd_sc_hd__o211a_1 A1 A2 B1 C1 VGND VNB VPB VPWR X
.ends

* Black-box entry subcircuit for sky130_fd_sc_hd__dlygate4sd3_1 abstract view
.subckt sky130_fd_sc_hd__dlygate4sd3_1 A VGND VNB VPB VPWR X
.ends

* Black-box entry subcircuit for sky130_fd_sc_hd__decap_6 abstract view
.subckt sky130_fd_sc_hd__decap_6 VGND VNB VPB VPWR
.ends

* Black-box entry subcircuit for sky130_fd_sc_hd__buf_4 abstract view
.subckt sky130_fd_sc_hd__buf_4 A VGND VNB VPB VPWR X
.ends

* Black-box entry subcircuit for sky130_fd_sc_hd__clkbuf_4 abstract view
.subckt sky130_fd_sc_hd__clkbuf_4 A VGND VNB VPB VPWR X
.ends

* Black-box entry subcircuit for sky130_fd_sc_hd__buf_8 abstract view
.subckt sky130_fd_sc_hd__buf_8 A VGND VNB VPB VPWR X
.ends

* Black-box entry subcircuit for sky130_fd_sc_hd__clkbuf_16 abstract view
.subckt sky130_fd_sc_hd__clkbuf_16 A VGND VNB VPB VPWR X
.ends

* Black-box entry subcircuit for sky130_fd_sc_hd__tapvpwrvgnd_1 abstract view
.subckt sky130_fd_sc_hd__tapvpwrvgnd_1 VGND VPWR
.ends

* Black-box entry subcircuit for sky130_fd_sc_hd__and3_1 abstract view
.subckt sky130_fd_sc_hd__and3_1 A B C VGND VNB VPB VPWR X
.ends

* Black-box entry subcircuit for sky130_fd_sc_hd__or2_1 abstract view
.subckt sky130_fd_sc_hd__or2_1 A B VGND VNB VPB VPWR X
.ends

* Black-box entry subcircuit for sky130_fd_sc_hd__dfxtp_1 abstract view
.subckt sky130_fd_sc_hd__dfxtp_1 CLK D VGND VNB VPB VPWR Q
.ends

* Black-box entry subcircuit for sky130_fd_sc_hd__a21oi_1 abstract view
.subckt sky130_fd_sc_hd__a21oi_1 A1 A2 B1 VGND VNB VPB VPWR Y
.ends

* Black-box entry subcircuit for sky130_fd_sc_hd__nor2_1 abstract view
.subckt sky130_fd_sc_hd__nor2_1 A B VGND VNB VPB VPWR Y
.ends

* Black-box entry subcircuit for sky130_fd_sc_hd__clkdlybuf4s25_1 abstract view
.subckt sky130_fd_sc_hd__clkdlybuf4s25_1 A VGND VNB VPB VPWR X
.ends

* Black-box entry subcircuit for sky130_fd_sc_hd__buf_6 abstract view
.subckt sky130_fd_sc_hd__buf_6 A VGND VNB VPB VPWR X
.ends

* Black-box entry subcircuit for sky130_fd_sc_hd__buf_2 abstract view
.subckt sky130_fd_sc_hd__buf_2 A VGND VNB VPB VPWR X
.ends

* Black-box entry subcircuit for sky130_fd_sc_hd__a22o_1 abstract view
.subckt sky130_fd_sc_hd__a22o_1 A1 A2 B1 B2 VGND VNB VPB VPWR X
.ends

* Black-box entry subcircuit for sky130_fd_sc_hd__buf_1 abstract view
.subckt sky130_fd_sc_hd__buf_1 A VGND VNB VPB VPWR X
.ends

* Black-box entry subcircuit for sky130_fd_sc_hd__nand2_2 abstract view
.subckt sky130_fd_sc_hd__nand2_2 A B VGND VNB VPB VPWR Y
.ends

* Black-box entry subcircuit for sky130_fd_sc_hd__o21a_1 abstract view
.subckt sky130_fd_sc_hd__o21a_1 A1 A2 B1 VGND VNB VPB VPWR X
.ends

* Black-box entry subcircuit for sky130_fd_sc_hd__clkbuf_8 abstract view
.subckt sky130_fd_sc_hd__clkbuf_8 A VGND VNB VPB VPWR X
.ends

* Black-box entry subcircuit for sky130_fd_sc_hd__nor2_2 abstract view
.subckt sky130_fd_sc_hd__nor2_2 A B VGND VNB VPB VPWR Y
.ends

* Black-box entry subcircuit for sky130_fd_sc_hd__or3b_1 abstract view
.subckt sky130_fd_sc_hd__or3b_1 A B C_N VGND VNB VPB VPWR X
.ends

* Black-box entry subcircuit for sky130_fd_sc_hd__dlymetal6s2s_1 abstract view
.subckt sky130_fd_sc_hd__dlymetal6s2s_1 A VGND VNB VPB VPWR X
.ends

* Black-box entry subcircuit for sky130_fd_sc_hd__or3_1 abstract view
.subckt sky130_fd_sc_hd__or3_1 A B C VGND VNB VPB VPWR X
.ends

* Black-box entry subcircuit for sky130_fd_sc_hd__or2_2 abstract view
.subckt sky130_fd_sc_hd__or2_2 A B VGND VNB VPB VPWR X
.ends

* Black-box entry subcircuit for sky130_fd_sc_hd__a221o_1 abstract view
.subckt sky130_fd_sc_hd__a221o_1 A1 A2 B1 B2 C1 VGND VNB VPB VPWR X
.ends

* Black-box entry subcircuit for sky130_fd_sc_hd__o311a_1 abstract view
.subckt sky130_fd_sc_hd__o311a_1 A1 A2 A3 B1 C1 VGND VNB VPB VPWR X
.ends

* Black-box entry subcircuit for sky130_fd_sc_hd__or2_4 abstract view
.subckt sky130_fd_sc_hd__or2_4 A B VGND VNB VPB VPWR X
.ends

* Black-box entry subcircuit for sky130_fd_sc_hd__o221a_1 abstract view
.subckt sky130_fd_sc_hd__o221a_1 A1 A2 B1 B2 C1 VGND VNB VPB VPWR X
.ends

* Black-box entry subcircuit for sky130_fd_sc_hd__buf_12 abstract view
.subckt sky130_fd_sc_hd__buf_12 A VGND VNB VPB VPWR X
.ends

* Black-box entry subcircuit for sky130_fd_sc_hd__and2_2 abstract view
.subckt sky130_fd_sc_hd__and2_2 A B VGND VNB VPB VPWR X
.ends

* Black-box entry subcircuit for sky130_fd_sc_hd__or4_1 abstract view
.subckt sky130_fd_sc_hd__or4_1 A B C D VGND VNB VPB VPWR X
.ends

* Black-box entry subcircuit for sky130_fd_sc_hd__a32o_1 abstract view
.subckt sky130_fd_sc_hd__a32o_1 A1 A2 A3 B1 B2 VGND VNB VPB VPWR X
.ends

* Black-box entry subcircuit for sky130_fd_sc_hd__diode_2 abstract view
.subckt sky130_fd_sc_hd__diode_2 DIODE VGND VNB VPB VPWR
.ends

* Black-box entry subcircuit for sky130_fd_sc_hd__and3b_1 abstract view
.subckt sky130_fd_sc_hd__and3b_1 A_N B C VGND VNB VPB VPWR X
.ends

* Black-box entry subcircuit for sky130_fd_sc_hd__or4b_1 abstract view
.subckt sky130_fd_sc_hd__or4b_1 A B C D_N VGND VNB VPB VPWR X
.ends

* Black-box entry subcircuit for sky130_fd_sc_hd__mux2_2 abstract view
.subckt sky130_fd_sc_hd__mux2_2 A0 A1 S VGND VNB VPB VPWR X
.ends

* Black-box entry subcircuit for sky130_fd_sc_hd__dfxtp_2 abstract view
.subckt sky130_fd_sc_hd__dfxtp_2 CLK D VGND VNB VPB VPWR Q
.ends

* Black-box entry subcircuit for sky130_fd_sc_hd__nor4_1 abstract view
.subckt sky130_fd_sc_hd__nor4_1 A B C D VGND VNB VPB VPWR Y
.ends

* Black-box entry subcircuit for sky130_fd_sc_hd__or4_2 abstract view
.subckt sky130_fd_sc_hd__or4_2 A B C D VGND VNB VPB VPWR X
.ends

* Black-box entry subcircuit for sky130_fd_sc_hd__a211o_1 abstract view
.subckt sky130_fd_sc_hd__a211o_1 A1 A2 B1 C1 VGND VNB VPB VPWR X
.ends

* Black-box entry subcircuit for sky130_fd_sc_hd__o21ai_1 abstract view
.subckt sky130_fd_sc_hd__o21ai_1 A1 A2 B1 VGND VNB VPB VPWR Y
.ends

* Black-box entry subcircuit for sky130_fd_sc_hd__nor3_1 abstract view
.subckt sky130_fd_sc_hd__nor3_1 A B C VGND VNB VPB VPWR Y
.ends

* Black-box entry subcircuit for sky130_fd_sc_hd__a21o_1 abstract view
.subckt sky130_fd_sc_hd__a21o_1 A1 A2 B1 VGND VNB VPB VPWR X
.ends

* Black-box entry subcircuit for sky130_fd_sc_hd__clkbuf_2 abstract view
.subckt sky130_fd_sc_hd__clkbuf_2 A VGND VNB VPB VPWR X
.ends

* Black-box entry subcircuit for sky130_fd_sc_hd__or4bb_4 abstract view
.subckt sky130_fd_sc_hd__or4bb_4 A B C_N D_N VGND VNB VPB VPWR X
.ends

* Black-box entry subcircuit for sky130_fd_sc_hd__nand2_8 abstract view
.subckt sky130_fd_sc_hd__nand2_8 A B VGND VNB VPB VPWR Y
.ends

* Black-box entry subcircuit for sky130_fd_sc_hd__nand2b_1 abstract view
.subckt sky130_fd_sc_hd__nand2b_1 A_N B VGND VNB VPB VPWR Y
.ends

* Black-box entry subcircuit for sky130_fd_sc_hd__or3_4 abstract view
.subckt sky130_fd_sc_hd__or3_4 A B C VGND VNB VPB VPWR X
.ends

* Black-box entry subcircuit for sky130_fd_sc_hd__a31o_1 abstract view
.subckt sky130_fd_sc_hd__a31o_1 A1 A2 A3 B1 VGND VNB VPB VPWR X
.ends

* Black-box entry subcircuit for sky130_fd_sc_hd__or4b_4 abstract view
.subckt sky130_fd_sc_hd__or4b_4 A B C D_N VGND VNB VPB VPWR X
.ends

* Black-box entry subcircuit for sky130_fd_sc_hd__o211a_2 abstract view
.subckt sky130_fd_sc_hd__o211a_2 A1 A2 B1 C1 VGND VNB VPB VPWR X
.ends

* Black-box entry subcircuit for sky130_fd_sc_hd__nor3_4 abstract view
.subckt sky130_fd_sc_hd__nor3_4 A B C VGND VNB VPB VPWR Y
.ends

* Black-box entry subcircuit for sky130_fd_sc_hd__inv_2 abstract view
.subckt sky130_fd_sc_hd__inv_2 A VGND VNB VPB VPWR Y
.ends

* Black-box entry subcircuit for sky130_fd_sc_hd__a21oi_2 abstract view
.subckt sky130_fd_sc_hd__a21oi_2 A1 A2 B1 VGND VNB VPB VPWR Y
.ends

* Black-box entry subcircuit for sky130_fd_sc_hd__a21boi_1 abstract view
.subckt sky130_fd_sc_hd__a21boi_1 A1 A2 B1_N VGND VNB VPB VPWR Y
.ends

* Black-box entry subcircuit for sky130_fd_sc_hd__and3_4 abstract view
.subckt sky130_fd_sc_hd__and3_4 A B C VGND VNB VPB VPWR X
.ends

* Black-box entry subcircuit for sky130_fd_sc_hd__and4_1 abstract view
.subckt sky130_fd_sc_hd__and4_1 A B C D VGND VNB VPB VPWR X
.ends

* Black-box entry subcircuit for sky130_fd_sc_hd__clkbuf_1 abstract view
.subckt sky130_fd_sc_hd__clkbuf_1 A VGND VNB VPB VPWR X
.ends

* Black-box entry subcircuit for sky130_fd_sc_hd__nor4_2 abstract view
.subckt sky130_fd_sc_hd__nor4_2 A B C D VGND VNB VPB VPWR Y
.ends

* Black-box entry subcircuit for sky130_fd_sc_hd__or3b_4 abstract view
.subckt sky130_fd_sc_hd__or3b_4 A B C_N VGND VNB VPB VPWR X
.ends

* Black-box entry subcircuit for sky130_fd_sc_hd__and4b_1 abstract view
.subckt sky130_fd_sc_hd__and4b_1 A_N B C D VGND VNB VPB VPWR X
.ends

* Black-box entry subcircuit for sky130_fd_sc_hd__or4_4 abstract view
.subckt sky130_fd_sc_hd__or4_4 A B C D VGND VNB VPB VPWR X
.ends

* Black-box entry subcircuit for sky130_fd_sc_hd__and3b_4 abstract view
.subckt sky130_fd_sc_hd__and3b_4 A_N B C VGND VNB VPB VPWR X
.ends

* Black-box entry subcircuit for sky130_fd_sc_hd__or3_2 abstract view
.subckt sky130_fd_sc_hd__or3_2 A B C VGND VNB VPB VPWR X
.ends

* Black-box entry subcircuit for sky130_fd_sc_hd__nor3_2 abstract view
.subckt sky130_fd_sc_hd__nor3_2 A B C VGND VNB VPB VPWR Y
.ends

* Black-box entry subcircuit for sky130_fd_sc_hd__and4b_4 abstract view
.subckt sky130_fd_sc_hd__and4b_4 A_N B C D VGND VNB VPB VPWR X
.ends

* Black-box entry subcircuit for sky130_fd_sc_hd__a31oi_1 abstract view
.subckt sky130_fd_sc_hd__a31oi_1 A1 A2 A3 B1 VGND VNB VPB VPWR Y
.ends

* Black-box entry subcircuit for sky130_fd_sc_hd__or4b_2 abstract view
.subckt sky130_fd_sc_hd__or4b_2 A B C D_N VGND VNB VPB VPWR X
.ends

* Black-box entry subcircuit for sky130_fd_sc_hd__nand4b_4 abstract view
.subckt sky130_fd_sc_hd__nand4b_4 A_N B C D VGND VNB VPB VPWR Y
.ends

* Black-box entry subcircuit for sky130_fd_sc_hd__nand2b_4 abstract view
.subckt sky130_fd_sc_hd__nand2b_4 A_N B VGND VNB VPB VPWR Y
.ends

* Black-box entry subcircuit for sky130_fd_sc_hd__and4bb_4 abstract view
.subckt sky130_fd_sc_hd__and4bb_4 A_N B_N C D VGND VNB VPB VPWR X
.ends

* Black-box entry subcircuit for sky130_fd_sc_hd__and4bb_1 abstract view
.subckt sky130_fd_sc_hd__and4bb_1 A_N B_N C D VGND VNB VPB VPWR X
.ends

* Black-box entry subcircuit for sky130_fd_sc_hd__dfxtp_4 abstract view
.subckt sky130_fd_sc_hd__dfxtp_4 CLK D VGND VNB VPB VPWR Q
.ends

* Black-box entry subcircuit for sky130_fd_sc_hd__a21o_2 abstract view
.subckt sky130_fd_sc_hd__a21o_2 A1 A2 B1 VGND VNB VPB VPWR X
.ends

* Black-box entry subcircuit for sky130_fd_sc_hd__o21bai_4 abstract view
.subckt sky130_fd_sc_hd__o21bai_4 A1 A2 B1_N VGND VNB VPB VPWR Y
.ends

* Black-box entry subcircuit for sky130_fd_sc_hd__o21ba_1 abstract view
.subckt sky130_fd_sc_hd__o21ba_1 A1 A2 B1_N VGND VNB VPB VPWR X
.ends

* Black-box entry subcircuit for sky130_fd_sc_hd__nand2b_2 abstract view
.subckt sky130_fd_sc_hd__nand2b_2 A_N B VGND VNB VPB VPWR Y
.ends

* Black-box entry subcircuit for sky130_fd_sc_hd__o22a_1 abstract view
.subckt sky130_fd_sc_hd__o22a_1 A1 A2 B1 B2 VGND VNB VPB VPWR X
.ends

* Black-box entry subcircuit for sky130_fd_sc_hd__or4bb_1 abstract view
.subckt sky130_fd_sc_hd__or4bb_1 A B C_N D_N VGND VNB VPB VPWR X
.ends

* Black-box entry subcircuit for sky130_fd_sc_hd__o2bb2a_1 abstract view
.subckt sky130_fd_sc_hd__o2bb2a_1 A1_N A2_N B1 B2 VGND VNB VPB VPWR X
.ends

* Black-box entry subcircuit for sky130_fd_sc_hd__a2bb2o_1 abstract view
.subckt sky130_fd_sc_hd__a2bb2o_1 A1_N A2_N B1 B2 VGND VNB VPB VPWR X
.ends

* Black-box entry subcircuit for sky130_fd_sc_hd__and4_2 abstract view
.subckt sky130_fd_sc_hd__and4_2 A B C D VGND VNB VPB VPWR X
.ends

* Black-box entry subcircuit for sky130_fd_sc_hd__nand2_4 abstract view
.subckt sky130_fd_sc_hd__nand2_4 A B VGND VNB VPB VPWR Y
.ends

* Black-box entry subcircuit for sky130_fd_sc_hd__a21oi_4 abstract view
.subckt sky130_fd_sc_hd__a21oi_4 A1 A2 B1 VGND VNB VPB VPWR Y
.ends

* Black-box entry subcircuit for sky130_fd_sc_hd__and2b_1 abstract view
.subckt sky130_fd_sc_hd__and2b_1 A_N B VGND VNB VPB VPWR X
.ends

.subckt lovers_controller becStatus[0] becStatus[1] becStatus[2] becStatus[3] data_in[0]
+ data_in[10] data_in[11] data_in[12] data_in[13] data_in[14] data_in[15] data_in[16]
+ data_in[17] data_in[18] data_in[19] data_in[1] data_in[20] data_in[21] data_in[22]
+ data_in[23] data_in[24] data_in[25] data_in[26] data_in[27] data_in[28] data_in[29]
+ data_in[2] data_in[30] data_in[31] data_in[3] data_in[4] data_in[5] data_in[6] data_in[7]
+ data_in[8] data_in[9] data_out[0] data_out[10] data_out[11] data_out[12] data_out[13]
+ data_out[14] data_out[15] data_out[16] data_out[17] data_out[18] data_out[19] data_out[1]
+ data_out[20] data_out[21] data_out[22] data_out[23] data_out[24] data_out[25] data_out[26]
+ data_out[27] data_out[28] data_out[29] data_out[2] data_out[30] data_out[31] data_out[3]
+ data_out[4] data_out[5] data_out[6] data_out[7] data_out[8] data_out[9] io_oeb io_out
+ ki la_data_in[0] la_data_in[10] la_data_in[11] la_data_in[12] la_data_in[13] la_data_in[14]
+ la_data_in[15] la_data_in[16] la_data_in[17] la_data_in[18] la_data_in[19] la_data_in[1]
+ la_data_in[20] la_data_in[21] la_data_in[22] la_data_in[23] la_data_in[24] la_data_in[25]
+ la_data_in[26] la_data_in[27] la_data_in[28] la_data_in[29] la_data_in[2] la_data_in[30]
+ la_data_in[31] la_data_in[3] la_data_in[4] la_data_in[5] la_data_in[6] la_data_in[7]
+ la_data_in[8] la_data_in[9] la_data_out[0] la_data_out[10] la_data_out[11] la_data_out[12]
+ la_data_out[13] la_data_out[14] la_data_out[15] la_data_out[16] la_data_out[17]
+ la_data_out[18] la_data_out[19] la_data_out[1] la_data_out[20] la_data_out[21] la_data_out[22]
+ la_data_out[23] la_data_out[24] la_data_out[25] la_data_out[26] la_data_out[27]
+ la_data_out[28] la_data_out[29] la_data_out[2] la_data_out[30] la_data_out[31] la_data_out[3]
+ la_data_out[4] la_data_out[5] la_data_out[6] la_data_out[7] la_data_out[8] la_data_out[9]
+ load_data load_status[0] load_status[1] load_status[2] load_status[3] load_status[4]
+ load_status[5] next_key slv_done slv_enable vccd1 vssd1 wb_clk_i wb_rst_i
XFILLER_0_185_68 vssd1 vssd1 vccd1 vccd1 sky130_fd_sc_hd__decap_4
X_09671_ hold1368/X _16381_/Q _10055_/C vssd1 vssd1 vccd1 vccd1 _09672_/B sky130_fd_sc_hd__mux2_1
XFILLER_0_118_62 vssd1 vssd1 vccd1 vccd1 sky130_fd_sc_hd__fill_1
XFILLER_0_119_1118 vssd1 vssd1 vccd1 vccd1 sky130_fd_sc_hd__fill_2
X_08622_ _09003_/A hold433/X vssd1 vssd1 vccd1 vccd1 _15933_/D sky130_fd_sc_hd__and2_1
XFILLER_0_94_1166 vssd1 vssd1 vccd1 vccd1 sky130_fd_sc_hd__fill_2
X_08553_ _12420_/A _08553_/B vssd1 vssd1 vccd1 vccd1 _15900_/D sky130_fd_sc_hd__and2_1
XFILLER_0_49_314 vssd1 vssd1 vccd1 vccd1 sky130_fd_sc_hd__decap_4
X_08484_ _15217_/A _08488_/B vssd1 vssd1 vccd1 vccd1 _08484_/Y sky130_fd_sc_hd__nand2_1
XFILLER_0_43_70 vssd1 vssd1 vccd1 vccd1 sky130_fd_sc_hd__fill_1
XFILLER_0_159_393 vssd1 vssd1 vccd1 vccd1 sky130_fd_sc_hd__decap_8
XFILLER_0_18_701 vssd1 vssd1 vccd1 vccd1 sky130_ef_sc_hd__decap_12
XFILLER_0_64_306 vssd1 vssd1 vccd1 vccd1 sky130_fd_sc_hd__fill_2
XFILLER_0_175_886 vssd1 vssd1 vccd1 vccd1 sky130_fd_sc_hd__fill_2
XFILLER_0_57_391 vssd1 vssd1 vccd1 vccd1 sky130_fd_sc_hd__fill_1
XFILLER_0_175_897 vssd1 vssd1 vccd1 vccd1 sky130_fd_sc_hd__fill_2
XFILLER_0_162_514 vssd1 vssd1 vccd1 vccd1 sky130_ef_sc_hd__decap_12
XFILLER_0_73_873 vssd1 vssd1 vccd1 vccd1 sky130_fd_sc_hd__fill_2
XFILLER_0_91_169 vssd1 vssd1 vccd1 vccd1 sky130_ef_sc_hd__decap_12
XFILLER_0_190_867 vssd1 vssd1 vccd1 vccd1 sky130_fd_sc_hd__fill_1
XFILLER_0_17_277 vssd1 vssd1 vccd1 vccd1 sky130_fd_sc_hd__decap_3
X_09105_ hold2374/X _09106_/B _09104_/Y _12984_/A vssd1 vssd1 vccd1 vccd1 _09105_/X
+ sky130_fd_sc_hd__o211a_1
XFILLER_0_127_290 vssd1 vssd1 vccd1 vccd1 sky130_fd_sc_hd__decap_3
XFILLER_0_150_82 vssd1 vssd1 vccd1 vccd1 sky130_fd_sc_hd__fill_2
XFILLER_0_60_545 vssd1 vssd1 vccd1 vccd1 sky130_fd_sc_hd__decap_4
X_09036_ hold219/X hold724/X _09062_/S vssd1 vssd1 vccd1 vccd1 _09037_/B sky130_fd_sc_hd__mux2_1
XFILLER_0_103_614 vssd1 vssd1 vccd1 vccd1 sky130_fd_sc_hd__fill_2
XFILLER_0_130_444 vssd1 vssd1 vccd1 vccd1 sky130_fd_sc_hd__fill_1
Xhold340 hold340/A vssd1 vssd1 vccd1 vccd1 hold340/X sky130_fd_sc_hd__dlygate4sd3_1
XFILLER_0_131_978 vssd1 vssd1 vccd1 vccd1 sky130_fd_sc_hd__fill_2
Xhold351 hold351/A vssd1 vssd1 vccd1 vccd1 hold351/X sky130_fd_sc_hd__dlygate4sd3_1
Xhold362 hold362/A vssd1 vssd1 vccd1 vccd1 hold362/X sky130_fd_sc_hd__dlygate4sd3_1
Xhold373 hold373/A vssd1 vssd1 vccd1 vccd1 hold373/X sky130_fd_sc_hd__dlygate4sd3_1
XFILLER_0_102_179 vssd1 vssd1 vccd1 vccd1 sky130_fd_sc_hd__decap_6
Xhold384 hold67/X vssd1 vssd1 vccd1 vccd1 input16/A sky130_fd_sc_hd__dlygate4sd3_1
XFILLER_0_7_92 vssd1 vssd1 vccd1 vccd1 sky130_ef_sc_hd__decap_12
Xhold395 hold395/A vssd1 vssd1 vccd1 vccd1 hold395/X sky130_fd_sc_hd__dlygate4sd3_1
Xfanout820 _14863_/C1 vssd1 vssd1 vccd1 vccd1 _14833_/C1 sky130_fd_sc_hd__buf_4
Xfanout831 fanout841/X vssd1 vssd1 vccd1 vccd1 _14859_/C1 sky130_fd_sc_hd__clkbuf_4
XFILLER_0_110_190 vssd1 vssd1 vccd1 vccd1 sky130_fd_sc_hd__decap_6
Xfanout842 _07787_/Y vssd1 vssd1 vccd1 vccd1 fanout842/X sky130_fd_sc_hd__buf_8
X_09938_ hold1408/X _16470_/Q _10022_/C vssd1 vssd1 vccd1 vccd1 _09939_/B sky130_fd_sc_hd__mux2_1
Xfanout853 _11791_/A vssd1 vssd1 vccd1 vccd1 _11218_/A sky130_fd_sc_hd__buf_4
Xfanout864 _07783_/Y vssd1 vssd1 vccd1 vccd1 _15215_/A sky130_fd_sc_hd__clkbuf_16
Xfanout875 hold883/X vssd1 vssd1 vccd1 vccd1 _15527_/A sky130_fd_sc_hd__buf_8
Xfanout886 _15195_/A vssd1 vssd1 vccd1 vccd1 _14980_/A sky130_fd_sc_hd__clkbuf_16
X_09869_ hold1663/X hold3491/X _10481_/S vssd1 vssd1 vccd1 vccd1 _09870_/B sky130_fd_sc_hd__mux2_1
Xfanout897 hold667/X vssd1 vssd1 vccd1 vccd1 _14850_/A sky130_fd_sc_hd__buf_8
XTAP_3202 vssd1 vccd1 sky130_fd_sc_hd__tapvpwrvgnd_1
Xhold1040 _08418_/X vssd1 vssd1 vccd1 vccd1 _15839_/D sky130_fd_sc_hd__dlygate4sd3_1
XTAP_3213 vssd1 vccd1 sky130_fd_sc_hd__tapvpwrvgnd_1
Xhold1051 hold1148/X vssd1 vssd1 vccd1 vccd1 hold1149/A sky130_fd_sc_hd__dlygate4sd3_1
XTAP_3224 vssd1 vccd1 sky130_fd_sc_hd__tapvpwrvgnd_1
X_11900_ hold2195/X hold5158/X _12305_/C vssd1 vssd1 vccd1 vccd1 _11901_/B sky130_fd_sc_hd__mux2_1
Xhold1062 _14299_/X vssd1 vssd1 vccd1 vccd1 _17949_/D sky130_fd_sc_hd__dlygate4sd3_1
XTAP_3235 vssd1 vccd1 sky130_fd_sc_hd__tapvpwrvgnd_1
XFILLER_0_169_113 vssd1 vssd1 vccd1 vccd1 sky130_fd_sc_hd__fill_2
Xhold1073 _16183_/Q vssd1 vssd1 vccd1 vccd1 hold1073/X sky130_fd_sc_hd__dlygate4sd3_1
X_12880_ hold1130/X hold3023/X _12919_/S vssd1 vssd1 vccd1 vccd1 _12880_/X sky130_fd_sc_hd__mux2_1
XTAP_2501 vssd1 vccd1 sky130_fd_sc_hd__tapvpwrvgnd_1
XTAP_3246 vssd1 vccd1 sky130_fd_sc_hd__tapvpwrvgnd_1
Xhold1084 _17894_/Q vssd1 vssd1 vccd1 vccd1 hold1084/X sky130_fd_sc_hd__dlygate4sd3_1
XTAP_3257 vssd1 vccd1 sky130_fd_sc_hd__tapvpwrvgnd_1
Xhold1095 _07834_/X vssd1 vssd1 vccd1 vccd1 _15562_/D sky130_fd_sc_hd__dlygate4sd3_1
XFILLER_0_68_601 vssd1 vssd1 vccd1 vccd1 sky130_fd_sc_hd__decap_3
XTAP_2512 vssd1 vccd1 sky130_fd_sc_hd__tapvpwrvgnd_1
XTAP_3268 vssd1 vccd1 sky130_fd_sc_hd__tapvpwrvgnd_1
XFILLER_0_68_612 vssd1 vssd1 vccd1 vccd1 sky130_fd_sc_hd__fill_1
XTAP_2523 vssd1 vccd1 sky130_fd_sc_hd__tapvpwrvgnd_1
XTAP_3279 vssd1 vccd1 sky130_fd_sc_hd__tapvpwrvgnd_1
X_11831_ hold2994/X hold3880/X _13793_/S vssd1 vssd1 vccd1 vccd1 _11832_/B sky130_fd_sc_hd__mux2_1
XTAP_2534 vssd1 vccd1 sky130_fd_sc_hd__tapvpwrvgnd_1
XFILLER_0_67_100 vssd1 vssd1 vccd1 vccd1 sky130_fd_sc_hd__decap_3
XTAP_1800 vssd1 vccd1 sky130_fd_sc_hd__tapvpwrvgnd_1
XTAP_2545 vssd1 vccd1 sky130_fd_sc_hd__tapvpwrvgnd_1
XFILLER_0_185_617 vssd1 vssd1 vccd1 vccd1 sky130_fd_sc_hd__fill_2
XTAP_1811 vssd1 vccd1 sky130_fd_sc_hd__tapvpwrvgnd_1
XTAP_2556 vssd1 vccd1 sky130_fd_sc_hd__tapvpwrvgnd_1
XFILLER_0_68_645 vssd1 vssd1 vccd1 vccd1 sky130_ef_sc_hd__decap_12
XTAP_1822 vssd1 vccd1 sky130_fd_sc_hd__tapvpwrvgnd_1
XTAP_2567 vssd1 vccd1 sky130_fd_sc_hd__tapvpwrvgnd_1
XTAP_1833 vssd1 vccd1 sky130_fd_sc_hd__tapvpwrvgnd_1
X_14550_ hold920/X _14554_/A2 _14549_/X _15044_/A vssd1 vssd1 vccd1 vccd1 hold921/A
+ sky130_fd_sc_hd__o211a_1
XTAP_2578 vssd1 vccd1 sky130_fd_sc_hd__tapvpwrvgnd_1
XTAP_1844 vssd1 vccd1 sky130_fd_sc_hd__tapvpwrvgnd_1
X_11762_ _17078_/Q _11762_/B _11762_/C vssd1 vssd1 vccd1 vccd1 _11762_/X sky130_fd_sc_hd__and3_1
XTAP_2589 vssd1 vccd1 sky130_fd_sc_hd__tapvpwrvgnd_1
XTAP_1855 vssd1 vccd1 sky130_fd_sc_hd__tapvpwrvgnd_1
XFILLER_0_138_533 vssd1 vssd1 vccd1 vccd1 sky130_fd_sc_hd__decap_4
XTAP_1866 vssd1 vccd1 sky130_fd_sc_hd__tapvpwrvgnd_1
XFILLER_0_83_615 vssd1 vssd1 vccd1 vccd1 sky130_fd_sc_hd__fill_1
XFILLER_0_165_330 vssd1 vssd1 vccd1 vccd1 sky130_fd_sc_hd__fill_1
X_13501_ hold5203/X _13883_/B _13500_/X _08391_/A vssd1 vssd1 vccd1 vccd1 _13501_/X
+ sky130_fd_sc_hd__o211a_1
XFILLER_0_138_555 vssd1 vssd1 vccd1 vccd1 sky130_fd_sc_hd__fill_1
XTAP_1877 vssd1 vccd1 sky130_fd_sc_hd__tapvpwrvgnd_1
X_10713_ _11103_/A _10713_/B vssd1 vssd1 vccd1 vccd1 _10713_/X sky130_fd_sc_hd__or2_1
XTAP_1888 vssd1 vccd1 sky130_fd_sc_hd__tapvpwrvgnd_1
X_14481_ _15000_/A _14481_/B vssd1 vssd1 vccd1 vccd1 _14481_/Y sky130_fd_sc_hd__nand2_1
XFILLER_0_193_661 vssd1 vssd1 vccd1 vccd1 sky130_fd_sc_hd__decap_4
XTAP_1899 vssd1 vccd1 sky130_fd_sc_hd__tapvpwrvgnd_1
X_11693_ hold915/X _17055_/Q _11789_/C vssd1 vssd1 vccd1 vccd1 _11694_/B sky130_fd_sc_hd__mux2_1
XFILLER_0_166_897 vssd1 vssd1 vccd1 vccd1 sky130_fd_sc_hd__fill_1
X_16220_ _17453_/CLK _16220_/D vssd1 vssd1 vccd1 vccd1 _16220_/Q sky130_fd_sc_hd__dfxtp_1
X_13432_ hold4383/X _13814_/B _13431_/X _09272_/A vssd1 vssd1 vccd1 vccd1 _13432_/X
+ sky130_fd_sc_hd__o211a_1
XFILLER_0_36_542 vssd1 vssd1 vccd1 vccd1 sky130_ef_sc_hd__decap_12
XFILLER_0_119_780 vssd1 vssd1 vccd1 vccd1 sky130_fd_sc_hd__decap_4
X_10644_ hold3642/X _10548_/A _10643_/X vssd1 vssd1 vccd1 vccd1 _10644_/Y sky130_fd_sc_hd__a21oi_1
XFILLER_0_24_726 vssd1 vssd1 vccd1 vccd1 sky130_ef_sc_hd__decap_12
XFILLER_0_107_953 vssd1 vssd1 vccd1 vccd1 sky130_fd_sc_hd__decap_4
X_16151_ _17487_/CLK _16151_/D vssd1 vssd1 vccd1 vccd1 _16151_/Q sky130_fd_sc_hd__dfxtp_1
X_13363_ hold5130/X _13859_/B _13362_/X _08383_/A vssd1 vssd1 vccd1 vccd1 _13363_/X
+ sky130_fd_sc_hd__o211a_1
X_10575_ hold3673/X _11082_/A _10574_/X vssd1 vssd1 vccd1 vccd1 _10576_/B sky130_fd_sc_hd__a21oi_1
XFILLER_0_1_1081 vssd1 vssd1 vccd1 vccd1 sky130_fd_sc_hd__fill_2
X_15102_ hold5975/X _15109_/B hold541/X _15168_/C1 vssd1 vssd1 vccd1 vccd1 hold542/A
+ sky130_fd_sc_hd__o211a_1
X_12314_ _12314_/A _12314_/B _12356_/C vssd1 vssd1 vccd1 vccd1 _12314_/X sky130_fd_sc_hd__and3_1
XFILLER_0_107_1000 vssd1 vssd1 vccd1 vccd1 sky130_fd_sc_hd__decap_8
XFILLER_0_122_934 vssd1 vssd1 vccd1 vccd1 sky130_fd_sc_hd__decap_3
X_16082_ _17313_/CLK _16082_/D vssd1 vssd1 vccd1 vccd1 hold633/A sky130_fd_sc_hd__dfxtp_1
X_13294_ _13294_/A _13310_/B vssd1 vssd1 vccd1 vccd1 _13294_/X sky130_fd_sc_hd__or2_1
XFILLER_0_146_1093 vssd1 vssd1 vccd1 vccd1 sky130_fd_sc_hd__decap_4
X_15033_ _15195_/A _18302_/Q hold302/X vssd1 vssd1 vccd1 vccd1 _15033_/X sky130_fd_sc_hd__mux2_1
X_12245_ hold1948/X hold4723/X _12341_/C vssd1 vssd1 vccd1 vccd1 _12246_/B sky130_fd_sc_hd__mux2_1
XFILLER_0_48_15 vssd1 vssd1 vccd1 vccd1 sky130_ef_sc_hd__decap_12
XFILLER_0_20_954 vssd1 vssd1 vccd1 vccd1 sky130_fd_sc_hd__decap_4
X_12176_ hold1712/X hold3372/X _12377_/C vssd1 vssd1 vccd1 vccd1 _12177_/B sky130_fd_sc_hd__mux2_1
XFILLER_0_20_998 vssd1 vssd1 vccd1 vccd1 sky130_fd_sc_hd__fill_1
XFILLER_0_177_1009 vssd1 vssd1 vccd1 vccd1 sky130_fd_sc_hd__fill_1
X_11127_ _11694_/A _11127_/B vssd1 vssd1 vccd1 vccd1 _11127_/X sky130_fd_sc_hd__or2_1
X_16984_ _17896_/CLK _16984_/D vssd1 vssd1 vccd1 vccd1 _16984_/Q sky130_fd_sc_hd__dfxtp_1
X_15935_ _17345_/CLK _15935_/D vssd1 vssd1 vccd1 vccd1 hold611/A sky130_fd_sc_hd__dfxtp_1
XFILLER_0_155_27 vssd1 vssd1 vccd1 vccd1 sky130_ef_sc_hd__decap_12
X_11058_ _11136_/A _11058_/B vssd1 vssd1 vccd1 vccd1 _11058_/X sky130_fd_sc_hd__or2_1
XFILLER_0_3_39 vssd1 vssd1 vccd1 vccd1 sky130_fd_sc_hd__fill_1
Xclkbuf_leaf_60_wb_clk_i clkbuf_5_8__f_wb_clk_i/X vssd1 vssd1 vccd1 vccd1 _17513_/CLK
+ sky130_fd_sc_hd__clkbuf_16
X_10009_ _11203_/A _10009_/B vssd1 vssd1 vccd1 vccd1 _10009_/Y sky130_fd_sc_hd__nor2_1
X_15866_ _17649_/CLK _15866_/D vssd1 vssd1 vccd1 vccd1 _15866_/Q sky130_fd_sc_hd__dfxtp_1
XFILLER_0_118_1140 vssd1 vssd1 vccd1 vccd1 sky130_fd_sc_hd__decap_8
X_14817_ hold1629/X _14828_/B _14816_/X _14883_/C1 vssd1 vssd1 vccd1 vccd1 _14817_/X
+ sky130_fd_sc_hd__o211a_1
X_17605_ _17701_/CLK _17605_/D vssd1 vssd1 vccd1 vccd1 _17605_/Q sky130_fd_sc_hd__dfxtp_1
XTAP_3780 vssd1 vccd1 sky130_fd_sc_hd__tapvpwrvgnd_1
X_15797_ _17731_/CLK _15797_/D vssd1 vssd1 vccd1 vccd1 _15797_/Q sky130_fd_sc_hd__dfxtp_1
XFILLER_0_171_15 vssd1 vssd1 vccd1 vccd1 sky130_ef_sc_hd__decap_12
XTAP_3791 vssd1 vccd1 sky130_fd_sc_hd__tapvpwrvgnd_1
XFILLER_0_129_500 vssd1 vssd1 vccd1 vccd1 sky130_fd_sc_hd__decap_4
X_17536_ _18380_/CLK _17536_/D vssd1 vssd1 vccd1 vccd1 _17536_/Q sky130_fd_sc_hd__dfxtp_1
XFILLER_0_147_3 vssd1 vssd1 vccd1 vccd1 sky130_ef_sc_hd__decap_12
XFILLER_0_15_1112 vssd1 vssd1 vccd1 vccd1 sky130_fd_sc_hd__decap_3
XFILLER_0_114_1037 vssd1 vssd1 vccd1 vccd1 sky130_fd_sc_hd__decap_8
X_14748_ _14980_/A _14786_/B vssd1 vssd1 vccd1 vccd1 _14748_/X sky130_fd_sc_hd__or2_1
XFILLER_0_50_1003 vssd1 vssd1 vccd1 vccd1 sky130_fd_sc_hd__decap_8
XFILLER_0_59_689 vssd1 vssd1 vccd1 vccd1 sky130_fd_sc_hd__fill_2
XFILLER_0_15_1145 vssd1 vssd1 vccd1 vccd1 sky130_ef_sc_hd__decap_12
X_17467_ _17482_/CLK _17467_/D vssd1 vssd1 vccd1 vccd1 _17467_/Q sky130_fd_sc_hd__dfxtp_1
XFILLER_0_188_1149 vssd1 vssd1 vccd1 vccd1 sky130_fd_sc_hd__decap_6
XFILLER_0_11_1009 vssd1 vssd1 vccd1 vccd1 sky130_fd_sc_hd__fill_1
XFILLER_0_73_125 vssd1 vssd1 vccd1 vccd1 sky130_ef_sc_hd__decap_12
X_14679_ hold2157/X _14666_/B _14678_/X _14867_/C1 vssd1 vssd1 vccd1 vccd1 _14679_/X
+ sky130_fd_sc_hd__o211a_1
XFILLER_0_157_897 vssd1 vssd1 vccd1 vccd1 sky130_fd_sc_hd__fill_2
X_16418_ _18389_/CLK _16418_/D vssd1 vssd1 vccd1 vccd1 _16418_/Q sky130_fd_sc_hd__dfxtp_1
X_17398_ _18450_/CLK _17398_/D vssd1 vssd1 vccd1 vccd1 _17398_/Q sky130_fd_sc_hd__dfxtp_1
XFILLER_0_54_361 vssd1 vssd1 vccd1 vccd1 sky130_fd_sc_hd__decap_3
XFILLER_0_132_709 vssd1 vssd1 vccd1 vccd1 sky130_fd_sc_hd__fill_2
X_16349_ _18360_/CLK _16349_/D vssd1 vssd1 vccd1 vccd1 _16349_/Q sky130_fd_sc_hd__dfxtp_1
Xhold6007 _18424_/Q vssd1 vssd1 vccd1 vccd1 hold6007/X sky130_fd_sc_hd__dlygate4sd3_1
XFILLER_0_172_889 vssd1 vssd1 vccd1 vccd1 sky130_fd_sc_hd__fill_2
Xhold6018 _09443_/Y vssd1 vssd1 vccd1 vccd1 _16307_/D sky130_fd_sc_hd__dlygate4sd3_1
Xhold6029 la_data_in[21] vssd1 vssd1 vccd1 vccd1 hold570/A sky130_fd_sc_hd__dlygate4sd3_1
Xhold5306 _16328_/Q vssd1 vssd1 vccd1 vccd1 _13094_/A sky130_fd_sc_hd__clkdlybuf4s25_1
XFILLER_0_124_260 vssd1 vssd1 vccd1 vccd1 sky130_fd_sc_hd__fill_2
XFILLER_0_125_783 vssd1 vssd1 vccd1 vccd1 sky130_fd_sc_hd__fill_1
XFILLER_0_14_258 vssd1 vssd1 vccd1 vccd1 sky130_fd_sc_hd__fill_1
Xhold5317 _10018_/Y vssd1 vssd1 vccd1 vccd1 _16496_/D sky130_fd_sc_hd__dlygate4sd3_1
Xhold5328 _09535_/X vssd1 vssd1 vccd1 vccd1 _16335_/D sky130_fd_sc_hd__dlygate4sd3_1
Xhold5339 _09526_/X vssd1 vssd1 vccd1 vccd1 _16332_/D sky130_fd_sc_hd__dlygate4sd3_1
XFILLER_0_23_781 vssd1 vssd1 vccd1 vccd1 sky130_fd_sc_hd__decap_3
X_18019_ _18052_/CLK _18019_/D vssd1 vssd1 vccd1 vccd1 _18019_/Q sky130_fd_sc_hd__dfxtp_1
Xhold4605 _16749_/Q vssd1 vssd1 vccd1 vccd1 hold4605/X sky130_fd_sc_hd__dlygate4sd3_1
Xhold4616 _11539_/X vssd1 vssd1 vccd1 vccd1 _17003_/D sky130_fd_sc_hd__dlygate4sd3_1
Xhold4627 _17060_/Q vssd1 vssd1 vccd1 vccd1 hold4627/X sky130_fd_sc_hd__dlygate4sd3_1
XFILLER_0_61_1110 vssd1 vssd1 vccd1 vccd1 sky130_fd_sc_hd__decap_8
XFILLER_0_125_1155 vssd1 vssd1 vccd1 vccd1 sky130_fd_sc_hd__decap_4
Xhold4638 _11905_/X vssd1 vssd1 vccd1 vccd1 _17125_/D sky130_fd_sc_hd__dlygate4sd3_1
Xhold3904 _13846_/Y vssd1 vssd1 vccd1 vccd1 _17735_/D sky130_fd_sc_hd__dlygate4sd3_1
Xhold4649 _17025_/Q vssd1 vssd1 vccd1 vccd1 hold4649/X sky130_fd_sc_hd__dlygate4sd3_1
Xhold3915 _16821_/Q vssd1 vssd1 vccd1 vccd1 hold3915/X sky130_fd_sc_hd__dlygate4sd3_1
XFILLER_0_112_499 vssd1 vssd1 vccd1 vccd1 sky130_fd_sc_hd__fill_1
Xhold3926 _16352_/Q vssd1 vssd1 vccd1 vccd1 _13286_/A sky130_fd_sc_hd__dlygate4sd3_1
XFILLER_0_10_453 vssd1 vssd1 vccd1 vccd1 sky130_ef_sc_hd__decap_12
Xhold3937 _10330_/X vssd1 vssd1 vccd1 vccd1 _16600_/D sky130_fd_sc_hd__dlygate4sd3_1
Xhold3948 _16814_/Q vssd1 vssd1 vccd1 vccd1 hold3948/X sky130_fd_sc_hd__dlygate4sd3_1
Xhold3959 hold5872/X vssd1 vssd1 vccd1 vccd1 hold5873/A sky130_fd_sc_hd__buf_6
Xfanout149 _12836_/S vssd1 vssd1 vccd1 vccd1 _12800_/S sky130_fd_sc_hd__buf_4
X_07984_ _15553_/A _07988_/B vssd1 vssd1 vccd1 vccd1 _07984_/X sky130_fd_sc_hd__or2_1