* NGSPICE file created from lovers_controller.ext - technology: sky130A

* Black-box entry subcircuit for sky130_fd_sc_hd__decap_6 abstract view
.subckt sky130_fd_sc_hd__decap_6 VGND VNB VPB VPWR
.ends

* Black-box entry subcircuit for sky130_fd_sc_hd__mux2_1 abstract view
.subckt sky130_fd_sc_hd__mux2_1 A0 A1 S VGND VNB VPB VPWR X
.ends

* Black-box entry subcircuit for sky130_fd_sc_hd__and2_1 abstract view
.subckt sky130_fd_sc_hd__and2_1 A B VGND VNB VPB VPWR X
.ends

* Black-box entry subcircuit for sky130_fd_sc_hd__decap_3 abstract view
.subckt sky130_fd_sc_hd__decap_3 VGND VNB VPB VPWR
.ends

* Black-box entry subcircuit for sky130_fd_sc_hd__fill_2 abstract view
.subckt sky130_fd_sc_hd__fill_2 VGND VNB VPB VPWR
.ends

* Black-box entry subcircuit for sky130_ef_sc_hd__decap_12 abstract view
.subckt sky130_ef_sc_hd__decap_12 VGND VNB VPB VPWR
.ends

* Black-box entry subcircuit for sky130_fd_sc_hd__fill_1 abstract view
.subckt sky130_fd_sc_hd__fill_1 VGND VNB VPB VPWR
.ends

* Black-box entry subcircuit for sky130_fd_sc_hd__decap_8 abstract view
.subckt sky130_fd_sc_hd__decap_8 VGND VNB VPB VPWR
.ends

* Black-box entry subcircuit for sky130_fd_sc_hd__nand2_1 abstract view
.subckt sky130_fd_sc_hd__nand2_1 A B VGND VNB VPB VPWR Y
.ends

* Black-box entry subcircuit for sky130_fd_sc_hd__decap_4 abstract view
.subckt sky130_fd_sc_hd__decap_4 VGND VNB VPB VPWR
.ends

* Black-box entry subcircuit for sky130_fd_sc_hd__o211a_1 abstract view
.subckt sky130_fd_sc_hd__o211a_1 A1 A2 B1 C1 VGND VNB VPB VPWR X
.ends

* Black-box entry subcircuit for sky130_fd_sc_hd__buf_8 abstract view
.subckt sky130_fd_sc_hd__buf_8 A VGND VNB VPB VPWR X
.ends

* Black-box entry subcircuit for sky130_fd_sc_hd__dlygate4sd3_1 abstract view
.subckt sky130_fd_sc_hd__dlygate4sd3_1 A VGND VNB VPB VPWR X
.ends

* Black-box entry subcircuit for sky130_fd_sc_hd__clkdlybuf4s25_1 abstract view
.subckt sky130_fd_sc_hd__clkdlybuf4s25_1 A VGND VNB VPB VPWR X
.ends

* Black-box entry subcircuit for sky130_fd_sc_hd__clkbuf_4 abstract view
.subckt sky130_fd_sc_hd__clkbuf_4 A VGND VNB VPB VPWR X
.ends

* Black-box entry subcircuit for sky130_fd_sc_hd__clkbuf_8 abstract view
.subckt sky130_fd_sc_hd__clkbuf_8 A VGND VNB VPB VPWR X
.ends

* Black-box entry subcircuit for sky130_fd_sc_hd__buf_4 abstract view
.subckt sky130_fd_sc_hd__buf_4 A VGND VNB VPB VPWR X
.ends

* Black-box entry subcircuit for sky130_fd_sc_hd__buf_12 abstract view
.subckt sky130_fd_sc_hd__buf_12 A VGND VNB VPB VPWR X
.ends

* Black-box entry subcircuit for sky130_fd_sc_hd__buf_6 abstract view
.subckt sky130_fd_sc_hd__buf_6 A VGND VNB VPB VPWR X
.ends

* Black-box entry subcircuit for sky130_fd_sc_hd__clkbuf_16 abstract view
.subckt sky130_fd_sc_hd__clkbuf_16 A VGND VNB VPB VPWR X
.ends

* Black-box entry subcircuit for sky130_fd_sc_hd__tapvpwrvgnd_1 abstract view
.subckt sky130_fd_sc_hd__tapvpwrvgnd_1 VGND VPWR
.ends

* Black-box entry subcircuit for sky130_fd_sc_hd__and3_1 abstract view
.subckt sky130_fd_sc_hd__and3_1 A B C VGND VNB VPB VPWR X
.ends

* Black-box entry subcircuit for sky130_fd_sc_hd__or2_1 abstract view
.subckt sky130_fd_sc_hd__or2_1 A B VGND VNB VPB VPWR X
.ends

* Black-box entry subcircuit for sky130_fd_sc_hd__dfxtp_1 abstract view
.subckt sky130_fd_sc_hd__dfxtp_1 CLK D VGND VNB VPB VPWR Q
.ends

* Black-box entry subcircuit for sky130_fd_sc_hd__a21oi_1 abstract view
.subckt sky130_fd_sc_hd__a21oi_1 A1 A2 B1 VGND VNB VPB VPWR Y
.ends

* Black-box entry subcircuit for sky130_fd_sc_hd__nor2_1 abstract view
.subckt sky130_fd_sc_hd__nor2_1 A B VGND VNB VPB VPWR Y
.ends

* Black-box entry subcircuit for sky130_fd_sc_hd__buf_1 abstract view
.subckt sky130_fd_sc_hd__buf_1 A VGND VNB VPB VPWR X
.ends

* Black-box entry subcircuit for sky130_fd_sc_hd__buf_2 abstract view
.subckt sky130_fd_sc_hd__buf_2 A VGND VNB VPB VPWR X
.ends

* Black-box entry subcircuit for sky130_fd_sc_hd__clkbuf_2 abstract view
.subckt sky130_fd_sc_hd__clkbuf_2 A VGND VNB VPB VPWR X
.ends

* Black-box entry subcircuit for sky130_fd_sc_hd__a22o_1 abstract view
.subckt sky130_fd_sc_hd__a22o_1 A1 A2 B1 B2 VGND VNB VPB VPWR X
.ends

* Black-box entry subcircuit for sky130_fd_sc_hd__dfxtp_2 abstract view
.subckt sky130_fd_sc_hd__dfxtp_2 CLK D VGND VNB VPB VPWR Q
.ends

* Black-box entry subcircuit for sky130_fd_sc_hd__nand2_8 abstract view
.subckt sky130_fd_sc_hd__nand2_8 A B VGND VNB VPB VPWR Y
.ends

* Black-box entry subcircuit for sky130_fd_sc_hd__o21a_1 abstract view
.subckt sky130_fd_sc_hd__o21a_1 A1 A2 B1 VGND VNB VPB VPWR X
.ends

* Black-box entry subcircuit for sky130_fd_sc_hd__nor2_2 abstract view
.subckt sky130_fd_sc_hd__nor2_2 A B VGND VNB VPB VPWR Y
.ends

* Black-box entry subcircuit for sky130_fd_sc_hd__or3b_1 abstract view
.subckt sky130_fd_sc_hd__or3b_1 A B C_N VGND VNB VPB VPWR X
.ends

* Black-box entry subcircuit for sky130_fd_sc_hd__or3_1 abstract view
.subckt sky130_fd_sc_hd__or3_1 A B C VGND VNB VPB VPWR X
.ends

* Black-box entry subcircuit for sky130_fd_sc_hd__or2_2 abstract view
.subckt sky130_fd_sc_hd__or2_2 A B VGND VNB VPB VPWR X
.ends

* Black-box entry subcircuit for sky130_fd_sc_hd__a221o_1 abstract view
.subckt sky130_fd_sc_hd__a221o_1 A1 A2 B1 B2 C1 VGND VNB VPB VPWR X
.ends

* Black-box entry subcircuit for sky130_fd_sc_hd__o311a_1 abstract view
.subckt sky130_fd_sc_hd__o311a_1 A1 A2 A3 B1 C1 VGND VNB VPB VPWR X
.ends

* Black-box entry subcircuit for sky130_fd_sc_hd__or2_4 abstract view
.subckt sky130_fd_sc_hd__or2_4 A B VGND VNB VPB VPWR X
.ends

* Black-box entry subcircuit for sky130_fd_sc_hd__o221a_1 abstract view
.subckt sky130_fd_sc_hd__o221a_1 A1 A2 B1 B2 C1 VGND VNB VPB VPWR X
.ends

* Black-box entry subcircuit for sky130_fd_sc_hd__and2_4 abstract view
.subckt sky130_fd_sc_hd__and2_4 A B VGND VNB VPB VPWR X
.ends

* Black-box entry subcircuit for sky130_fd_sc_hd__or4_1 abstract view
.subckt sky130_fd_sc_hd__or4_1 A B C D VGND VNB VPB VPWR X
.ends

* Black-box entry subcircuit for sky130_fd_sc_hd__a32o_1 abstract view
.subckt sky130_fd_sc_hd__a32o_1 A1 A2 A3 B1 B2 VGND VNB VPB VPWR X
.ends

* Black-box entry subcircuit for sky130_fd_sc_hd__diode_2 abstract view
.subckt sky130_fd_sc_hd__diode_2 DIODE VGND VNB VPB VPWR
.ends

* Black-box entry subcircuit for sky130_fd_sc_hd__and3b_1 abstract view
.subckt sky130_fd_sc_hd__and3b_1 A_N B C VGND VNB VPB VPWR X
.ends

* Black-box entry subcircuit for sky130_fd_sc_hd__or4b_1 abstract view
.subckt sky130_fd_sc_hd__or4b_1 A B C D_N VGND VNB VPB VPWR X
.ends

* Black-box entry subcircuit for sky130_fd_sc_hd__mux2_2 abstract view
.subckt sky130_fd_sc_hd__mux2_2 A0 A1 S VGND VNB VPB VPWR X
.ends

* Black-box entry subcircuit for sky130_fd_sc_hd__nor4_4 abstract view
.subckt sky130_fd_sc_hd__nor4_4 A B C D VGND VNB VPB VPWR Y
.ends

* Black-box entry subcircuit for sky130_fd_sc_hd__or4_2 abstract view
.subckt sky130_fd_sc_hd__or4_2 A B C D VGND VNB VPB VPWR X
.ends

* Black-box entry subcircuit for sky130_fd_sc_hd__a211o_1 abstract view
.subckt sky130_fd_sc_hd__a211o_1 A1 A2 B1 C1 VGND VNB VPB VPWR X
.ends

* Black-box entry subcircuit for sky130_fd_sc_hd__o21ai_1 abstract view
.subckt sky130_fd_sc_hd__o21ai_1 A1 A2 B1 VGND VNB VPB VPWR Y
.ends

* Black-box entry subcircuit for sky130_fd_sc_hd__dlymetal6s2s_1 abstract view
.subckt sky130_fd_sc_hd__dlymetal6s2s_1 A VGND VNB VPB VPWR X
.ends

* Black-box entry subcircuit for sky130_fd_sc_hd__nor3_1 abstract view
.subckt sky130_fd_sc_hd__nor3_1 A B C VGND VNB VPB VPWR Y
.ends

* Black-box entry subcircuit for sky130_fd_sc_hd__nor3_2 abstract view
.subckt sky130_fd_sc_hd__nor3_2 A B C VGND VNB VPB VPWR Y
.ends

* Black-box entry subcircuit for sky130_fd_sc_hd__a21o_1 abstract view
.subckt sky130_fd_sc_hd__a21o_1 A1 A2 B1 VGND VNB VPB VPWR X
.ends

* Black-box entry subcircuit for sky130_fd_sc_hd__or4bb_2 abstract view
.subckt sky130_fd_sc_hd__or4bb_2 A B C_N D_N VGND VNB VPB VPWR X
.ends

* Black-box entry subcircuit for sky130_fd_sc_hd__o211a_2 abstract view
.subckt sky130_fd_sc_hd__o211a_2 A1 A2 B1 C1 VGND VNB VPB VPWR X
.ends

* Black-box entry subcircuit for sky130_fd_sc_hd__nand2_4 abstract view
.subckt sky130_fd_sc_hd__nand2_4 A B VGND VNB VPB VPWR Y
.ends

* Black-box entry subcircuit for sky130_fd_sc_hd__nand2b_1 abstract view
.subckt sky130_fd_sc_hd__nand2b_1 A_N B VGND VNB VPB VPWR Y
.ends

* Black-box entry subcircuit for sky130_fd_sc_hd__or3_4 abstract view
.subckt sky130_fd_sc_hd__or3_4 A B C VGND VNB VPB VPWR X
.ends

* Black-box entry subcircuit for sky130_fd_sc_hd__a31o_1 abstract view
.subckt sky130_fd_sc_hd__a31o_1 A1 A2 A3 B1 VGND VNB VPB VPWR X
.ends

* Black-box entry subcircuit for sky130_fd_sc_hd__or4b_2 abstract view
.subckt sky130_fd_sc_hd__or4b_2 A B C D_N VGND VNB VPB VPWR X
.ends

* Black-box entry subcircuit for sky130_fd_sc_hd__nor3_4 abstract view
.subckt sky130_fd_sc_hd__nor3_4 A B C VGND VNB VPB VPWR Y
.ends

* Black-box entry subcircuit for sky130_fd_sc_hd__inv_2 abstract view
.subckt sky130_fd_sc_hd__inv_2 A VGND VNB VPB VPWR Y
.ends

* Black-box entry subcircuit for sky130_fd_sc_hd__a221o_2 abstract view
.subckt sky130_fd_sc_hd__a221o_2 A1 A2 B1 B2 C1 VGND VNB VPB VPWR X
.ends

* Black-box entry subcircuit for sky130_fd_sc_hd__clkbuf_1 abstract view
.subckt sky130_fd_sc_hd__clkbuf_1 A VGND VNB VPB VPWR X
.ends

* Black-box entry subcircuit for sky130_fd_sc_hd__a21boi_1 abstract view
.subckt sky130_fd_sc_hd__a21boi_1 A1 A2 B1_N VGND VNB VPB VPWR Y
.ends

* Black-box entry subcircuit for sky130_fd_sc_hd__nand2_2 abstract view
.subckt sky130_fd_sc_hd__nand2_2 A B VGND VNB VPB VPWR Y
.ends

* Black-box entry subcircuit for sky130_fd_sc_hd__clkinv_4 abstract view
.subckt sky130_fd_sc_hd__clkinv_4 A VGND VNB VPB VPWR Y
.ends

* Black-box entry subcircuit for sky130_fd_sc_hd__and3_4 abstract view
.subckt sky130_fd_sc_hd__and3_4 A B C VGND VNB VPB VPWR X
.ends

* Black-box entry subcircuit for sky130_fd_sc_hd__and4_2 abstract view
.subckt sky130_fd_sc_hd__and4_2 A B C D VGND VNB VPB VPWR X
.ends

* Black-box entry subcircuit for sky130_fd_sc_hd__and4_1 abstract view
.subckt sky130_fd_sc_hd__and4_1 A B C D VGND VNB VPB VPWR X
.ends

* Black-box entry subcircuit for sky130_fd_sc_hd__nor4_1 abstract view
.subckt sky130_fd_sc_hd__nor4_1 A B C D VGND VNB VPB VPWR Y
.ends

* Black-box entry subcircuit for sky130_fd_sc_hd__or3b_4 abstract view
.subckt sky130_fd_sc_hd__or3b_4 A B C_N VGND VNB VPB VPWR X
.ends

* Black-box entry subcircuit for sky130_fd_sc_hd__or4bb_4 abstract view
.subckt sky130_fd_sc_hd__or4bb_4 A B C_N D_N VGND VNB VPB VPWR X
.ends

* Black-box entry subcircuit for sky130_fd_sc_hd__and4b_1 abstract view
.subckt sky130_fd_sc_hd__and4b_1 A_N B C D VGND VNB VPB VPWR X
.ends

* Black-box entry subcircuit for sky130_fd_sc_hd__or4_4 abstract view
.subckt sky130_fd_sc_hd__or4_4 A B C D VGND VNB VPB VPWR X
.ends

* Black-box entry subcircuit for sky130_fd_sc_hd__and3b_4 abstract view
.subckt sky130_fd_sc_hd__and3b_4 A_N B C VGND VNB VPB VPWR X
.ends

* Black-box entry subcircuit for sky130_fd_sc_hd__or3_2 abstract view
.subckt sky130_fd_sc_hd__or3_2 A B C VGND VNB VPB VPWR X
.ends

* Black-box entry subcircuit for sky130_fd_sc_hd__and4b_4 abstract view
.subckt sky130_fd_sc_hd__and4b_4 A_N B C D VGND VNB VPB VPWR X
.ends

* Black-box entry subcircuit for sky130_fd_sc_hd__a31oi_1 abstract view
.subckt sky130_fd_sc_hd__a31oi_1 A1 A2 A3 B1 VGND VNB VPB VPWR Y
.ends

* Black-box entry subcircuit for sky130_fd_sc_hd__or4b_4 abstract view
.subckt sky130_fd_sc_hd__or4b_4 A B C D_N VGND VNB VPB VPWR X
.ends

* Black-box entry subcircuit for sky130_fd_sc_hd__nand4b_4 abstract view
.subckt sky130_fd_sc_hd__nand4b_4 A_N B C D VGND VNB VPB VPWR Y
.ends

* Black-box entry subcircuit for sky130_fd_sc_hd__nand2b_4 abstract view
.subckt sky130_fd_sc_hd__nand2b_4 A_N B VGND VNB VPB VPWR Y
.ends

* Black-box entry subcircuit for sky130_fd_sc_hd__and4bb_4 abstract view
.subckt sky130_fd_sc_hd__and4bb_4 A_N B_N C D VGND VNB VPB VPWR X
.ends

* Black-box entry subcircuit for sky130_fd_sc_hd__and4bb_1 abstract view
.subckt sky130_fd_sc_hd__and4bb_1 A_N B_N C D VGND VNB VPB VPWR X
.ends

* Black-box entry subcircuit for sky130_fd_sc_hd__dfxtp_4 abstract view
.subckt sky130_fd_sc_hd__dfxtp_4 CLK D VGND VNB VPB VPWR Q
.ends

* Black-box entry subcircuit for sky130_fd_sc_hd__a21o_2 abstract view
.subckt sky130_fd_sc_hd__a21o_2 A1 A2 B1 VGND VNB VPB VPWR X
.ends

* Black-box entry subcircuit for sky130_fd_sc_hd__o21bai_4 abstract view
.subckt sky130_fd_sc_hd__o21bai_4 A1 A2 B1_N VGND VNB VPB VPWR Y
.ends

* Black-box entry subcircuit for sky130_fd_sc_hd__o21ba_1 abstract view
.subckt sky130_fd_sc_hd__o21ba_1 A1 A2 B1_N VGND VNB VPB VPWR X
.ends

* Black-box entry subcircuit for sky130_fd_sc_hd__o22a_1 abstract view
.subckt sky130_fd_sc_hd__o22a_1 A1 A2 B1 B2 VGND VNB VPB VPWR X
.ends

* Black-box entry subcircuit for sky130_fd_sc_hd__mux2_4 abstract view
.subckt sky130_fd_sc_hd__mux2_4 A0 A1 S VGND VNB VPB VPWR X
.ends

* Black-box entry subcircuit for sky130_fd_sc_hd__o2bb2a_1 abstract view
.subckt sky130_fd_sc_hd__o2bb2a_1 A1_N A2_N B1 B2 VGND VNB VPB VPWR X
.ends

* Black-box entry subcircuit for sky130_fd_sc_hd__a2bb2o_1 abstract view
.subckt sky130_fd_sc_hd__a2bb2o_1 A1_N A2_N B1 B2 VGND VNB VPB VPWR X
.ends

* Black-box entry subcircuit for sky130_fd_sc_hd__and2_2 abstract view
.subckt sky130_fd_sc_hd__and2_2 A B VGND VNB VPB VPWR X
.ends

* Black-box entry subcircuit for sky130_fd_sc_hd__a21oi_4 abstract view
.subckt sky130_fd_sc_hd__a21oi_4 A1 A2 B1 VGND VNB VPB VPWR Y
.ends

* Black-box entry subcircuit for sky130_fd_sc_hd__nor4_2 abstract view
.subckt sky130_fd_sc_hd__nor4_2 A B C D VGND VNB VPB VPWR Y
.ends

* Black-box entry subcircuit for sky130_fd_sc_hd__and2b_1 abstract view
.subckt sky130_fd_sc_hd__and2b_1 A_N B VGND VNB VPB VPWR X
.ends

.subckt lovers_controller becStatus[0] becStatus[1] becStatus[2] becStatus[3] data_in[0]
+ data_in[10] data_in[11] data_in[12] data_in[13] data_in[14] data_in[15] data_in[16]
+ data_in[17] data_in[18] data_in[19] data_in[1] data_in[20] data_in[21] data_in[22]
+ data_in[23] data_in[24] data_in[25] data_in[26] data_in[27] data_in[28] data_in[29]
+ data_in[2] data_in[30] data_in[31] data_in[3] data_in[4] data_in[5] data_in[6] data_in[7]
+ data_in[8] data_in[9] data_out[0] data_out[10] data_out[11] data_out[12] data_out[13]
+ data_out[14] data_out[15] data_out[16] data_out[17] data_out[18] data_out[19] data_out[1]
+ data_out[20] data_out[21] data_out[22] data_out[23] data_out[24] data_out[25] data_out[26]
+ data_out[27] data_out[28] data_out[29] data_out[2] data_out[30] data_out[31] data_out[3]
+ data_out[4] data_out[5] data_out[6] data_out[7] data_out[8] data_out[9] io_oeb io_out
+ ki la_data_in[0] la_data_in[10] la_data_in[11] la_data_in[12] la_data_in[13] la_data_in[14]
+ la_data_in[15] la_data_in[16] la_data_in[17] la_data_in[18] la_data_in[19] la_data_in[1]
+ la_data_in[20] la_data_in[21] la_data_in[22] la_data_in[23] la_data_in[24] la_data_in[25]
+ la_data_in[26] la_data_in[27] la_data_in[28] la_data_in[29] la_data_in[2] la_data_in[30]
+ la_data_in[31] la_data_in[3] la_data_in[4] la_data_in[5] la_data_in[6] la_data_in[7]
+ la_data_in[8] la_data_in[9] la_data_out[0] la_data_out[10] la_data_out[11] la_data_out[12]
+ la_data_out[13] la_data_out[14] la_data_out[15] la_data_out[16] la_data_out[17]
+ la_data_out[18] la_data_out[19] la_data_out[1] la_data_out[20] la_data_out[21] la_data_out[22]
+ la_data_out[23] la_data_out[24] la_data_out[25] la_data_out[26] la_data_out[27]
+ la_data_out[28] la_data_out[29] la_data_out[2] la_data_out[30] la_data_out[31] la_data_out[3]
+ la_data_out[4] la_data_out[5] la_data_out[6] la_data_out[7] la_data_out[8] la_data_out[9]
+ load_data load_status[0] load_status[1] load_status[2] load_status[3] load_status[4]
+ load_status[5] next_key slv_done slv_enable vccd1 vssd1 wb_clk_i wb_rst_i
XFILLER_0_236_1309 vssd1 vssd1 vccd1 vccd1 sky130_fd_sc_hd__decap_6
X_09671_ _18294_/Q hold3545/X _10049_/C vssd1 vssd1 vccd1 vccd1 _09672_/B sky130_fd_sc_hd__mux2_1
X_08622_ _15314_/A hold762/X vssd1 vssd1 vccd1 vccd1 _15933_/D sky130_fd_sc_hd__and2_1
XFILLER_0_171_1301 vssd1 vssd1 vccd1 vccd1 sky130_fd_sc_hd__decap_3
XFILLER_0_59_1275 vssd1 vssd1 vccd1 vccd1 sky130_fd_sc_hd__fill_2
XFILLER_0_234_1033 vssd1 vssd1 vccd1 vccd1 sky130_fd_sc_hd__decap_3
XFILLER_0_179_658 vssd1 vssd1 vccd1 vccd1 sky130_ef_sc_hd__decap_12
XFILLER_0_171_1345 vssd1 vssd1 vccd1 vccd1 sky130_fd_sc_hd__fill_1
X_08553_ _12420_/A _08553_/B vssd1 vssd1 vccd1 vccd1 _15900_/D sky130_fd_sc_hd__and2_1
XFILLER_0_178_157 vssd1 vssd1 vccd1 vccd1 sky130_fd_sc_hd__fill_2
XFILLER_0_132_1329 vssd1 vssd1 vccd1 vccd1 sky130_ef_sc_hd__decap_12
XFILLER_0_194_628 vssd1 vssd1 vccd1 vccd1 sky130_fd_sc_hd__decap_8
XFILLER_0_178_179 vssd1 vssd1 vccd1 vccd1 sky130_fd_sc_hd__decap_8
X_08484_ _15163_/A _08488_/B vssd1 vssd1 vccd1 vccd1 _08484_/Y sky130_fd_sc_hd__nand2_1
XFILLER_0_175_831 vssd1 vssd1 vccd1 vccd1 sky130_fd_sc_hd__decap_8
XFILLER_0_159_393 vssd1 vssd1 vccd1 vccd1 sky130_fd_sc_hd__decap_6
XFILLER_0_18_701 vssd1 vssd1 vccd1 vccd1 sky130_ef_sc_hd__decap_12
XFILLER_0_43_92 vssd1 vssd1 vccd1 vccd1 sky130_ef_sc_hd__decap_12
XFILLER_0_58_881 vssd1 vssd1 vccd1 vccd1 sky130_fd_sc_hd__fill_1
XFILLER_0_76_177 vssd1 vssd1 vccd1 vccd1 sky130_ef_sc_hd__decap_12
XFILLER_0_212_1386 vssd1 vssd1 vccd1 vccd1 sky130_fd_sc_hd__fill_2
XFILLER_0_169_1230 vssd1 vssd1 vccd1 vccd1 sky130_fd_sc_hd__fill_2
XFILLER_0_119_268 vssd1 vssd1 vccd1 vccd1 sky130_ef_sc_hd__decap_12
XFILLER_0_134_205 vssd1 vssd1 vccd1 vccd1 sky130_ef_sc_hd__decap_12
XFILLER_0_190_834 vssd1 vssd1 vccd1 vccd1 sky130_ef_sc_hd__decap_12
XFILLER_0_116_920 vssd1 vssd1 vccd1 vccd1 sky130_fd_sc_hd__decap_4
XFILLER_0_9_499 vssd1 vssd1 vccd1 vccd1 sky130_fd_sc_hd__fill_1
XFILLER_0_165_1105 vssd1 vssd1 vccd1 vccd1 sky130_fd_sc_hd__fill_2
XFILLER_0_91_169 vssd1 vssd1 vccd1 vccd1 sky130_ef_sc_hd__decap_12
XFILLER_0_66_1202 vssd1 vssd1 vccd1 vccd1 sky130_fd_sc_hd__fill_2
X_09105_ hold2447/X _09106_/B _09104_/Y _12987_/A vssd1 vssd1 vccd1 vccd1 _09105_/X
+ sky130_fd_sc_hd__o211a_1
XFILLER_0_134_249 vssd1 vssd1 vccd1 vccd1 sky130_fd_sc_hd__decap_3
XFILLER_0_116_953 vssd1 vssd1 vccd1 vccd1 sky130_fd_sc_hd__decap_4
XFILLER_0_17_277 vssd1 vssd1 vccd1 vccd1 sky130_fd_sc_hd__decap_3
XFILLER_0_190_878 vssd1 vssd1 vccd1 vccd1 sky130_fd_sc_hd__decap_8
XFILLER_0_162_569 vssd1 vssd1 vccd1 vccd1 sky130_ef_sc_hd__decap_12
XFILLER_0_150_709 vssd1 vssd1 vccd1 vccd1 sky130_ef_sc_hd__decap_12
XFILLER_0_150_93 vssd1 vssd1 vccd1 vccd1 sky130_fd_sc_hd__decap_4
XFILLER_0_60_523 vssd1 vssd1 vccd1 vccd1 sky130_fd_sc_hd__decap_8
XFILLER_0_72_394 vssd1 vssd1 vccd1 vccd1 sky130_fd_sc_hd__fill_1
XFILLER_0_60_545 vssd1 vssd1 vccd1 vccd1 sky130_fd_sc_hd__decap_4
X_09036_ hold245/X hold760/X _09060_/S vssd1 vssd1 vccd1 vccd1 _09037_/B sky130_fd_sc_hd__mux2_1
XFILLER_0_66_1257 vssd1 vssd1 vccd1 vccd1 sky130_fd_sc_hd__decap_3
XFILLER_0_4_171 vssd1 vssd1 vccd1 vccd1 sky130_fd_sc_hd__decap_4
XFILLER_0_143_1425 vssd1 vssd1 vccd1 vccd1 sky130_fd_sc_hd__decap_6
XFILLER_0_60_589 vssd1 vssd1 vccd1 vccd1 sky130_fd_sc_hd__decap_6
XFILLER_0_41_770 vssd1 vssd1 vccd1 vccd1 sky130_ef_sc_hd__decap_12
Xhold340 hold340/A vssd1 vssd1 vccd1 vccd1 hold340/X sky130_fd_sc_hd__buf_8
XFILLER_0_104_1409 vssd1 vssd1 vccd1 vccd1 sky130_ef_sc_hd__decap_12
XFILLER_0_206_1179 vssd1 vssd1 vccd1 vccd1 sky130_fd_sc_hd__fill_1
Xhold351 hold351/A vssd1 vssd1 vccd1 vccd1 input60/A sky130_fd_sc_hd__dlygate4sd3_1
XFILLER_0_130_477 vssd1 vssd1 vccd1 vccd1 sky130_ef_sc_hd__decap_12
XFILLER_0_102_168 vssd1 vssd1 vccd1 vccd1 sky130_fd_sc_hd__decap_3
Xhold362 hold362/A vssd1 vssd1 vccd1 vccd1 hold362/X sky130_fd_sc_hd__clkdlybuf4s25_1
Xhold373 hold47/X vssd1 vssd1 vccd1 vccd1 hold373/X sky130_fd_sc_hd__clkbuf_4
XFILLER_0_7_92 vssd1 vssd1 vccd1 vccd1 sky130_ef_sc_hd__decap_12
Xhold384 hold384/A vssd1 vssd1 vccd1 vccd1 hold384/X sky130_fd_sc_hd__clkbuf_8
XFILLER_0_229_364 vssd1 vssd1 vccd1 vccd1 sky130_fd_sc_hd__decap_4
Xhold395 hold395/A vssd1 vssd1 vccd1 vccd1 hold395/X sky130_fd_sc_hd__dlygate4sd3_1
Xfanout820 _10564_/C1 vssd1 vssd1 vccd1 vccd1 _14895_/C1 sky130_fd_sc_hd__buf_4
Xfanout831 _14893_/C1 vssd1 vssd1 vccd1 vccd1 _14769_/C1 sky130_fd_sc_hd__buf_4
XFILLER_0_110_190 vssd1 vssd1 vccd1 vccd1 sky130_fd_sc_hd__fill_1
Xfanout842 fanout843/X vssd1 vssd1 vccd1 vccd1 _14865_/C1 sky130_fd_sc_hd__clkbuf_4
X_09938_ hold3087/X _16470_/Q _10022_/C vssd1 vssd1 vccd1 vccd1 _09939_/B sky130_fd_sc_hd__mux2_1
XFILLER_0_217_559 vssd1 vssd1 vccd1 vccd1 sky130_fd_sc_hd__fill_1
Xfanout853 _11218_/A vssd1 vssd1 vccd1 vccd1 _11206_/A sky130_fd_sc_hd__buf_8
Xfanout864 _15161_/A vssd1 vssd1 vccd1 vccd1 _15215_/A sky130_fd_sc_hd__buf_12
Xfanout875 hold704/X vssd1 vssd1 vccd1 vccd1 _09438_/B sky130_fd_sc_hd__buf_4
XFILLER_0_204_209 vssd1 vssd1 vccd1 vccd1 sky130_fd_sc_hd__decap_4
Xfanout886 _15195_/A vssd1 vssd1 vccd1 vccd1 _14461_/A sky130_fd_sc_hd__buf_6
X_09869_ _18360_/Q hold3604/X _10049_/C vssd1 vssd1 vccd1 vccd1 _09870_/B sky130_fd_sc_hd__mux2_1
Xfanout897 _14850_/A vssd1 vssd1 vccd1 vccd1 _15189_/A sky130_fd_sc_hd__clkbuf_16
Xhold1040 _07846_/X vssd1 vssd1 vccd1 vccd1 _15568_/D sky130_fd_sc_hd__dlygate4sd3_1
XTAP_3202 vssd1 vccd1 sky130_fd_sc_hd__tapvpwrvgnd_1
XFILLER_0_213_721 vssd1 vssd1 vccd1 vccd1 sky130_fd_sc_hd__decap_6
Xhold1051 _15811_/Q vssd1 vssd1 vccd1 vccd1 hold1051/X sky130_fd_sc_hd__dlygate4sd3_1
XTAP_3213 vssd1 vccd1 sky130_fd_sc_hd__tapvpwrvgnd_1
Xhold1062 _17516_/Q vssd1 vssd1 vccd1 vccd1 hold1062/X sky130_fd_sc_hd__dlygate4sd3_1
X_11900_ hold1241/X hold4022/X _13796_/S vssd1 vssd1 vccd1 vccd1 _11901_/B sky130_fd_sc_hd__mux2_1
XTAP_3224 vssd1 vccd1 sky130_fd_sc_hd__tapvpwrvgnd_1
XFILLER_0_217_1231 vssd1 vssd1 vccd1 vccd1 sky130_fd_sc_hd__fill_1
XFILLER_0_198_934 vssd1 vssd1 vccd1 vccd1 sky130_fd_sc_hd__decap_8
XTAP_3235 vssd1 vccd1 sky130_fd_sc_hd__tapvpwrvgnd_1
Xhold1073 _14983_/X vssd1 vssd1 vccd1 vccd1 _18277_/D sky130_fd_sc_hd__dlygate4sd3_1
Xclkbuf_6_25_0_wb_clk_i clkbuf_2_1_0_wb_clk_i/X vssd1 vssd1 vccd1 vccd1 clkbuf_6_25_0_wb_clk_i/X
+ sky130_fd_sc_hd__clkbuf_8
XTAP_2501 vssd1 vccd1 sky130_fd_sc_hd__tapvpwrvgnd_1
X_12880_ hold1909/X _17471_/Q _12916_/S vssd1 vssd1 vccd1 vccd1 _12880_/X sky130_fd_sc_hd__mux2_1
XFILLER_0_87_409 vssd1 vssd1 vccd1 vccd1 sky130_fd_sc_hd__fill_1
Xhold1084 _15826_/Q vssd1 vssd1 vccd1 vccd1 hold1084/X sky130_fd_sc_hd__dlygate4sd3_1
XTAP_3246 vssd1 vccd1 sky130_fd_sc_hd__tapvpwrvgnd_1
XFILLER_0_213_765 vssd1 vssd1 vccd1 vccd1 sky130_ef_sc_hd__decap_12
XFILLER_0_198_967 vssd1 vssd1 vccd1 vccd1 sky130_ef_sc_hd__decap_12
Xhold1095 _18228_/Q vssd1 vssd1 vccd1 vccd1 hold1095/X sky130_fd_sc_hd__dlygate4sd3_1
XFILLER_0_38_1359 vssd1 vssd1 vccd1 vccd1 sky130_fd_sc_hd__fill_1
XFILLER_0_68_601 vssd1 vssd1 vccd1 vccd1 sky130_fd_sc_hd__decap_4
XTAP_2512 vssd1 vccd1 sky130_fd_sc_hd__tapvpwrvgnd_1
XTAP_3257 vssd1 vccd1 sky130_fd_sc_hd__tapvpwrvgnd_1
XFILLER_0_197_444 vssd1 vssd1 vccd1 vccd1 sky130_fd_sc_hd__decap_4
XTAP_2523 vssd1 vccd1 sky130_fd_sc_hd__tapvpwrvgnd_1
XTAP_3268 vssd1 vccd1 sky130_fd_sc_hd__tapvpwrvgnd_1
X_11831_ hold2966/X hold4343/X _13409_/S vssd1 vssd1 vccd1 vccd1 _11832_/B sky130_fd_sc_hd__mux2_1
XTAP_2534 vssd1 vccd1 sky130_fd_sc_hd__tapvpwrvgnd_1
XTAP_3279 vssd1 vccd1 sky130_fd_sc_hd__tapvpwrvgnd_1
XTAP_1800 vssd1 vccd1 sky130_fd_sc_hd__tapvpwrvgnd_1
XTAP_2545 vssd1 vccd1 sky130_fd_sc_hd__tapvpwrvgnd_1
XFILLER_0_185_617 vssd1 vssd1 vccd1 vccd1 sky130_ef_sc_hd__decap_12
XTAP_1811 vssd1 vccd1 sky130_fd_sc_hd__tapvpwrvgnd_1
XFILLER_0_67_111 vssd1 vssd1 vccd1 vccd1 sky130_fd_sc_hd__fill_1
XTAP_2556 vssd1 vccd1 sky130_fd_sc_hd__tapvpwrvgnd_1
XFILLER_0_212_286 vssd1 vssd1 vccd1 vccd1 sky130_fd_sc_hd__decap_3
XFILLER_0_150_1429 vssd1 vssd1 vccd1 vccd1 sky130_fd_sc_hd__fill_2
XTAP_1822 vssd1 vccd1 sky130_fd_sc_hd__tapvpwrvgnd_1
XFILLER_0_68_645 vssd1 vssd1 vccd1 vccd1 sky130_ef_sc_hd__decap_12
XTAP_2567 vssd1 vccd1 sky130_fd_sc_hd__tapvpwrvgnd_1
XFILLER_0_96_965 vssd1 vssd1 vccd1 vccd1 sky130_ef_sc_hd__decap_12
XTAP_1833 vssd1 vccd1 sky130_fd_sc_hd__tapvpwrvgnd_1
XTAP_2578 vssd1 vccd1 sky130_fd_sc_hd__tapvpwrvgnd_1
X_14550_ hold6062/X _14537_/B hold821/X _13897_/A vssd1 vssd1 vccd1 vccd1 hold822/A
+ sky130_fd_sc_hd__o211a_1
XTAP_1844 vssd1 vccd1 sky130_fd_sc_hd__tapvpwrvgnd_1
XTAP_2589 vssd1 vccd1 sky130_fd_sc_hd__tapvpwrvgnd_1
X_11762_ _11762_/A _11771_/B _12242_/S vssd1 vssd1 vccd1 vccd1 _11762_/X sky130_fd_sc_hd__and3_1
XTAP_1855 vssd1 vccd1 sky130_fd_sc_hd__tapvpwrvgnd_1
XTAP_1866 vssd1 vccd1 sky130_fd_sc_hd__tapvpwrvgnd_1
X_13501_ hold5587/X _13883_/B _13500_/X _08347_/A vssd1 vssd1 vccd1 vccd1 _13501_/X
+ sky130_fd_sc_hd__o211a_1
XFILLER_0_55_317 vssd1 vssd1 vccd1 vccd1 sky130_ef_sc_hd__decap_12
X_10713_ _11103_/A _10713_/B vssd1 vssd1 vccd1 vccd1 _10713_/X sky130_fd_sc_hd__or2_1
XTAP_1877 vssd1 vccd1 sky130_fd_sc_hd__tapvpwrvgnd_1
XTAP_1888 vssd1 vccd1 sky130_fd_sc_hd__tapvpwrvgnd_1
XFILLER_0_113_1262 vssd1 vssd1 vccd1 vccd1 sky130_fd_sc_hd__fill_2
X_14481_ _15215_/A _14481_/B vssd1 vssd1 vccd1 vccd1 _14481_/Y sky130_fd_sc_hd__nand2_1
XFILLER_0_181_801 vssd1 vssd1 vccd1 vccd1 sky130_ef_sc_hd__decap_12
XTAP_1899 vssd1 vccd1 sky130_fd_sc_hd__tapvpwrvgnd_1
X_11693_ hold2609/X _17055_/Q _11789_/C vssd1 vssd1 vccd1 vccd1 _11694_/B sky130_fd_sc_hd__mux2_1
XFILLER_0_153_503 vssd1 vssd1 vccd1 vccd1 sky130_fd_sc_hd__fill_1
XFILLER_0_82_136 vssd1 vssd1 vccd1 vccd1 sky130_fd_sc_hd__decap_4
Xclkbuf_leaf_344_wb_clk_i clkbuf_6_42_0_wb_clk_i/X vssd1 vssd1 vccd1 vccd1 _17746_/CLK
+ sky130_fd_sc_hd__clkbuf_16
XFILLER_0_10_1201 vssd1 vssd1 vccd1 vccd1 sky130_fd_sc_hd__decap_3
X_16220_ _17452_/CLK _16220_/D vssd1 vssd1 vccd1 vccd1 _16220_/Q sky130_fd_sc_hd__dfxtp_1
XFILLER_0_125_216 vssd1 vssd1 vccd1 vccd1 sky130_fd_sc_hd__decap_8
X_13432_ hold5819/X _13808_/B _13431_/X _12738_/A vssd1 vssd1 vccd1 vccd1 _13432_/X
+ sky130_fd_sc_hd__o211a_1
XFILLER_0_82_147 vssd1 vssd1 vccd1 vccd1 sky130_fd_sc_hd__fill_1
X_10644_ hold4227/X _10551_/A _10643_/X vssd1 vssd1 vccd1 vccd1 _10644_/Y sky130_fd_sc_hd__a21oi_1
XFILLER_0_70_309 vssd1 vssd1 vccd1 vccd1 sky130_fd_sc_hd__decap_6
XFILLER_0_180_333 vssd1 vssd1 vccd1 vccd1 sky130_fd_sc_hd__fill_1
XFILLER_0_63_361 vssd1 vssd1 vccd1 vccd1 sky130_ef_sc_hd__decap_12
XFILLER_0_107_953 vssd1 vssd1 vccd1 vccd1 sky130_fd_sc_hd__fill_1
X_16151_ _17491_/CLK _16151_/D vssd1 vssd1 vccd1 vccd1 _16151_/Q sky130_fd_sc_hd__dfxtp_1
XFILLER_0_36_586 vssd1 vssd1 vccd1 vccd1 sky130_fd_sc_hd__fill_2
X_10575_ hold4330/X _10986_/A _10574_/X vssd1 vssd1 vccd1 vccd1 _10575_/Y sky130_fd_sc_hd__a21oi_1
XFILLER_0_24_737 vssd1 vssd1 vccd1 vccd1 sky130_fd_sc_hd__fill_2
X_13363_ hold5502/X _13847_/B _13362_/X _08387_/A vssd1 vssd1 vccd1 vccd1 _13363_/X
+ sky130_fd_sc_hd__o211a_1
XFILLER_0_36_597 vssd1 vssd1 vccd1 vccd1 sky130_fd_sc_hd__decap_3
XFILLER_0_23_225 vssd1 vssd1 vccd1 vccd1 sky130_ef_sc_hd__decap_12
XFILLER_0_228_1371 vssd1 vssd1 vccd1 vccd1 sky130_fd_sc_hd__fill_1
X_15102_ hold6060/X hold340/X hold692/X _15234_/C1 vssd1 vssd1 vccd1 vccd1 hold693/A
+ sky130_fd_sc_hd__o211a_1
XFILLER_0_122_923 vssd1 vssd1 vccd1 vccd1 sky130_fd_sc_hd__fill_1
X_12314_ _17262_/Q _12356_/B _13481_/S vssd1 vssd1 vccd1 vccd1 _12314_/X sky130_fd_sc_hd__and3_1
X_16082_ _16082_/CLK _16082_/D vssd1 vssd1 vccd1 vccd1 hold567/A sky130_fd_sc_hd__dfxtp_1
X_13294_ _13294_/A _13294_/B vssd1 vssd1 vccd1 vccd1 _13294_/X sky130_fd_sc_hd__or2_1
XFILLER_0_11_409 vssd1 vssd1 vccd1 vccd1 sky130_ef_sc_hd__decap_12
XFILLER_0_133_293 vssd1 vssd1 vccd1 vccd1 sky130_fd_sc_hd__decap_6
XFILLER_0_210_85 vssd1 vssd1 vccd1 vccd1 sky130_ef_sc_hd__decap_12
XFILLER_0_107_1033 vssd1 vssd1 vccd1 vccd1 sky130_fd_sc_hd__decap_8
X_15033_ _14980_/A hold2596/X _15071_/S vssd1 vssd1 vccd1 vccd1 _15034_/B sky130_fd_sc_hd__mux2_1
XFILLER_0_146_1093 vssd1 vssd1 vccd1 vccd1 sky130_ef_sc_hd__decap_12
X_12245_ hold2539/X hold4037/X _12371_/C vssd1 vssd1 vccd1 vccd1 _12246_/B sky130_fd_sc_hd__mux2_1
XFILLER_0_48_15 vssd1 vssd1 vccd1 vccd1 sky130_ef_sc_hd__decap_12
X_12176_ hold1825/X hold5137/X _13886_/C vssd1 vssd1 vccd1 vccd1 _12177_/B sky130_fd_sc_hd__mux2_1
XFILLER_0_235_323 vssd1 vssd1 vccd1 vccd1 sky130_fd_sc_hd__fill_1
X_11127_ _11127_/A _11127_/B vssd1 vssd1 vccd1 vccd1 _11127_/X sky130_fd_sc_hd__or2_1
X_16984_ _17832_/CLK _16984_/D vssd1 vssd1 vccd1 vccd1 _16984_/Q sky130_fd_sc_hd__dfxtp_1
X_15935_ _16120_/CLK _15935_/D vssd1 vssd1 vccd1 vccd1 hold585/A sky130_fd_sc_hd__dfxtp_1
X_11058_ _11136_/A _11058_/B vssd1 vssd1 vccd1 vccd1 _11058_/X sky130_fd_sc_hd__or2_1
XTAP_5160 vssd1 vccd1 sky130_fd_sc_hd__tapvpwrvgnd_1
XFILLER_0_3_39 vssd1 vssd1 vccd1 vccd1 sky130_fd_sc_hd__decap_6
XFILLER_0_223_529 vssd1 vssd1 vccd1 vccd1 sky130_ef_sc_hd__decap_12
XFILLER_0_204_710 vssd1 vssd1 vccd1 vccd1 sky130_ef_sc_hd__decap_12
XTAP_5171 vssd1 vccd1 sky130_fd_sc_hd__tapvpwrvgnd_1
XTAP_5182 vssd1 vccd1 sky130_fd_sc_hd__tapvpwrvgnd_1
Xclkbuf_leaf_60_wb_clk_i clkbuf_6_24_0_wb_clk_i/X vssd1 vssd1 vccd1 vccd1 _18046_/CLK
+ sky130_fd_sc_hd__clkbuf_16
X_10009_ _11203_/A _10009_/B vssd1 vssd1 vccd1 vccd1 _10009_/Y sky130_fd_sc_hd__nor2_1
XTAP_5193 vssd1 vccd1 sky130_fd_sc_hd__tapvpwrvgnd_1
XFILLER_0_189_945 vssd1 vssd1 vccd1 vccd1 sky130_fd_sc_hd__decap_6
XTAP_4470 vssd1 vccd1 sky130_fd_sc_hd__tapvpwrvgnd_1
X_15866_ _17737_/CLK _15866_/D vssd1 vssd1 vccd1 vccd1 _15866_/Q sky130_fd_sc_hd__dfxtp_1
XFILLER_0_231_540 vssd1 vssd1 vccd1 vccd1 sky130_ef_sc_hd__decap_12
XTAP_4481 vssd1 vccd1 sky130_fd_sc_hd__tapvpwrvgnd_1
XTAP_4492 vssd1 vccd1 sky130_fd_sc_hd__tapvpwrvgnd_1
X_14817_ hold2027/X _14828_/B _14816_/X _14885_/C1 vssd1 vssd1 vccd1 vccd1 _14817_/X
+ sky130_fd_sc_hd__o211a_1
X_17605_ _17733_/CLK _17605_/D vssd1 vssd1 vccd1 vccd1 _17605_/Q sky130_fd_sc_hd__dfxtp_1
XFILLER_0_87_921 vssd1 vssd1 vccd1 vccd1 sky130_fd_sc_hd__decap_8
XFILLER_0_231_573 vssd1 vssd1 vccd1 vccd1 sky130_ef_sc_hd__decap_12
XFILLER_0_192_1091 vssd1 vssd1 vccd1 vccd1 sky130_fd_sc_hd__fill_1
XFILLER_0_235_1386 vssd1 vssd1 vccd1 vccd1 sky130_fd_sc_hd__fill_1
XFILLER_0_235_93 vssd1 vssd1 vccd1 vccd1 sky130_fd_sc_hd__decap_8
XTAP_3780 vssd1 vccd1 sky130_fd_sc_hd__tapvpwrvgnd_1