* NGSPICE file created from vmsu_8bit_top.ext - technology: sky130A

* Black-box entry subcircuit for sky130_fd_sc_hd__tapvpwrvgnd_1 abstract view
.subckt sky130_fd_sc_hd__tapvpwrvgnd_1 VGND VPWR
.ends

* Black-box entry subcircuit for sky130_fd_sc_hd__fill_2 abstract view
.subckt sky130_fd_sc_hd__fill_2 VGND VNB VPB VPWR
.ends

* Black-box entry subcircuit for sky130_fd_sc_hd__inv_2 abstract view
.subckt sky130_fd_sc_hd__inv_2 A VGND VNB VPB VPWR Y
.ends

* Black-box entry subcircuit for sky130_ef_sc_hd__decap_12 abstract view
.subckt sky130_ef_sc_hd__decap_12 VGND VNB VPB VPWR
.ends

* Black-box entry subcircuit for sky130_fd_sc_hd__o211ai_1 abstract view
.subckt sky130_fd_sc_hd__o211ai_1 A1 A2 B1 C1 VGND VNB VPB VPWR Y
.ends

* Black-box entry subcircuit for sky130_fd_sc_hd__decap_6 abstract view
.subckt sky130_fd_sc_hd__decap_6 VGND VNB VPB VPWR
.ends

* Black-box entry subcircuit for sky130_fd_sc_hd__nand2_1 abstract view
.subckt sky130_fd_sc_hd__nand2_1 A B VGND VNB VPB VPWR Y
.ends

* Black-box entry subcircuit for sky130_fd_sc_hd__clkbuf_1 abstract view
.subckt sky130_fd_sc_hd__clkbuf_1 A VGND VNB VPB VPWR X
.ends

* Black-box entry subcircuit for sky130_fd_sc_hd__fill_1 abstract view
.subckt sky130_fd_sc_hd__fill_1 VGND VNB VPB VPWR
.ends

* Black-box entry subcircuit for sky130_fd_sc_hd__decap_3 abstract view
.subckt sky130_fd_sc_hd__decap_3 VGND VNB VPB VPWR
.ends

* Black-box entry subcircuit for sky130_fd_sc_hd__o21a_1 abstract view
.subckt sky130_fd_sc_hd__o21a_1 A1 A2 B1 VGND VNB VPB VPWR X
.ends

* Black-box entry subcircuit for sky130_fd_sc_hd__nand3_1 abstract view
.subckt sky130_fd_sc_hd__nand3_1 A B C VGND VNB VPB VPWR Y
.ends

* Black-box entry subcircuit for sky130_fd_sc_hd__nor2_1 abstract view
.subckt sky130_fd_sc_hd__nor2_1 A B VGND VNB VPB VPWR Y
.ends

* Black-box entry subcircuit for sky130_fd_sc_hd__decap_4 abstract view
.subckt sky130_fd_sc_hd__decap_4 VGND VNB VPB VPWR
.ends

* Black-box entry subcircuit for sky130_fd_sc_hd__decap_8 abstract view
.subckt sky130_fd_sc_hd__decap_8 VGND VNB VPB VPWR
.ends

* Black-box entry subcircuit for sky130_fd_sc_hd__and2_1 abstract view
.subckt sky130_fd_sc_hd__and2_1 A B VGND VNB VPB VPWR X
.ends

* Black-box entry subcircuit for sky130_fd_sc_hd__dlygate4sd3_1 abstract view
.subckt sky130_fd_sc_hd__dlygate4sd3_1 A VGND VNB VPB VPWR X
.ends

* Black-box entry subcircuit for sky130_fd_sc_hd__dfxtp_1 abstract view
.subckt sky130_fd_sc_hd__dfxtp_1 CLK D VGND VNB VPB VPWR Q
.ends

* Black-box entry subcircuit for sky130_fd_sc_hd__buf_12 abstract view
.subckt sky130_fd_sc_hd__buf_12 A VGND VNB VPB VPWR X
.ends

* Black-box entry subcircuit for sky130_fd_sc_hd__or3_1 abstract view
.subckt sky130_fd_sc_hd__or3_1 A B C VGND VNB VPB VPWR X
.ends

* Black-box entry subcircuit for sky130_fd_sc_hd__a21oi_1 abstract view
.subckt sky130_fd_sc_hd__a21oi_1 A1 A2 B1 VGND VNB VPB VPWR Y
.ends

* Black-box entry subcircuit for sky130_fd_sc_hd__or2_1 abstract view
.subckt sky130_fd_sc_hd__or2_1 A B VGND VNB VPB VPWR X
.ends

* Black-box entry subcircuit for sky130_fd_sc_hd__and3_1 abstract view
.subckt sky130_fd_sc_hd__and3_1 A B C VGND VNB VPB VPWR X
.ends

* Black-box entry subcircuit for sky130_fd_sc_hd__nand3_2 abstract view
.subckt sky130_fd_sc_hd__nand3_2 A B C VGND VNB VPB VPWR Y
.ends

* Black-box entry subcircuit for sky130_fd_sc_hd__a22o_1 abstract view
.subckt sky130_fd_sc_hd__a22o_1 A1 A2 B1 B2 VGND VNB VPB VPWR X
.ends

* Black-box entry subcircuit for sky130_fd_sc_hd__a21o_1 abstract view
.subckt sky130_fd_sc_hd__a21o_1 A1 A2 B1 VGND VNB VPB VPWR X
.ends

* Black-box entry subcircuit for sky130_fd_sc_hd__or4_1 abstract view
.subckt sky130_fd_sc_hd__or4_1 A B C D VGND VNB VPB VPWR X
.ends

* Black-box entry subcircuit for sky130_fd_sc_hd__o21ai_1 abstract view
.subckt sky130_fd_sc_hd__o21ai_1 A1 A2 B1 VGND VNB VPB VPWR Y
.ends

* Black-box entry subcircuit for sky130_fd_sc_hd__or3b_1 abstract view
.subckt sky130_fd_sc_hd__or3b_1 A B C_N VGND VNB VPB VPWR X
.ends

* Black-box entry subcircuit for sky130_fd_sc_hd__nand2b_1 abstract view
.subckt sky130_fd_sc_hd__nand2b_1 A_N B VGND VNB VPB VPWR Y
.ends

* Black-box entry subcircuit for sky130_fd_sc_hd__dlymetal6s2s_1 abstract view
.subckt sky130_fd_sc_hd__dlymetal6s2s_1 A VGND VNB VPB VPWR X
.ends

* Black-box entry subcircuit for sky130_fd_sc_hd__o211a_1 abstract view
.subckt sky130_fd_sc_hd__o211a_1 A1 A2 B1 C1 VGND VNB VPB VPWR X
.ends

* Black-box entry subcircuit for sky130_fd_sc_hd__dfxtp_4 abstract view
.subckt sky130_fd_sc_hd__dfxtp_4 CLK D VGND VNB VPB VPWR Q
.ends

* Black-box entry subcircuit for sky130_fd_sc_hd__clkbuf_16 abstract view
.subckt sky130_fd_sc_hd__clkbuf_16 A VGND VNB VPB VPWR X
.ends

* Black-box entry subcircuit for sky130_fd_sc_hd__nand2_2 abstract view
.subckt sky130_fd_sc_hd__nand2_2 A B VGND VNB VPB VPWR Y
.ends

* Black-box entry subcircuit for sky130_fd_sc_hd__or4_2 abstract view
.subckt sky130_fd_sc_hd__or4_2 A B C D VGND VNB VPB VPWR X
.ends

* Black-box entry subcircuit for sky130_fd_sc_hd__dfxtp_2 abstract view
.subckt sky130_fd_sc_hd__dfxtp_2 CLK D VGND VNB VPB VPWR Q
.ends

* Black-box entry subcircuit for sky130_fd_sc_hd__buf_1 abstract view
.subckt sky130_fd_sc_hd__buf_1 A VGND VNB VPB VPWR X
.ends

* Black-box entry subcircuit for sky130_fd_sc_hd__nor3_1 abstract view
.subckt sky130_fd_sc_hd__nor3_1 A B C VGND VNB VPB VPWR Y
.ends

* Black-box entry subcircuit for sky130_fd_sc_hd__o21bai_1 abstract view
.subckt sky130_fd_sc_hd__o21bai_1 A1 A2 B1_N VGND VNB VPB VPWR Y
.ends

* Black-box entry subcircuit for sky130_fd_sc_hd__nor3b_1 abstract view
.subckt sky130_fd_sc_hd__nor3b_1 A B C_N VGND VNB VPB VPWR Y
.ends

* Black-box entry subcircuit for sky130_fd_sc_hd__nor2b_1 abstract view
.subckt sky130_fd_sc_hd__nor2b_1 A B_N VGND VNB VPB VPWR Y
.ends

* Black-box entry subcircuit for sky130_fd_sc_hd__nand3b_1 abstract view
.subckt sky130_fd_sc_hd__nand3b_1 A_N B C VGND VNB VPB VPWR Y
.ends

* Black-box entry subcircuit for sky130_fd_sc_hd__xnor2_1 abstract view
.subckt sky130_fd_sc_hd__xnor2_1 A B VGND VNB VPB VPWR Y
.ends

* Black-box entry subcircuit for sky130_fd_sc_hd__and2b_1 abstract view
.subckt sky130_fd_sc_hd__and2b_1 A_N B VGND VNB VPB VPWR X
.ends

* Black-box entry subcircuit for sky130_fd_sc_hd__xor2_1 abstract view
.subckt sky130_fd_sc_hd__xor2_1 A B VGND VNB VPB VPWR X
.ends

* Black-box entry subcircuit for sky130_fd_sc_hd__inv_8 abstract view
.subckt sky130_fd_sc_hd__inv_8 A VGND VNB VPB VPWR Y
.ends

* Black-box entry subcircuit for sky130_fd_sc_hd__clkbuf_8 abstract view
.subckt sky130_fd_sc_hd__clkbuf_8 A VGND VNB VPB VPWR X
.ends

* Black-box entry subcircuit for sky130_fd_sc_hd__or3_2 abstract view
.subckt sky130_fd_sc_hd__or3_2 A B C VGND VNB VPB VPWR X
.ends

* Black-box entry subcircuit for sky130_fd_sc_hd__o21ba_1 abstract view
.subckt sky130_fd_sc_hd__o21ba_1 A1 A2 B1_N VGND VNB VPB VPWR X
.ends

* Black-box entry subcircuit for sky130_fd_sc_hd__a31o_1 abstract view
.subckt sky130_fd_sc_hd__a31o_1 A1 A2 A3 B1 VGND VNB VPB VPWR X
.ends

* Black-box entry subcircuit for sky130_fd_sc_hd__nand3b_2 abstract view
.subckt sky130_fd_sc_hd__nand3b_2 A_N B C VGND VNB VPB VPWR Y
.ends

* Black-box entry subcircuit for sky130_fd_sc_hd__or2b_1 abstract view
.subckt sky130_fd_sc_hd__or2b_1 A B_N VGND VNB VPB VPWR X
.ends

* Black-box entry subcircuit for sky130_fd_sc_hd__a221oi_2 abstract view
.subckt sky130_fd_sc_hd__a221oi_2 A1 A2 B1 B2 C1 VGND VNB VPB VPWR Y
.ends

.subckt vmsu_8bit_top a[0] a[1] a[2] a[3] a[4] a[5] a[6] a[7] b[0] b[1] b[2] b[3]
+ b[4] b[5] b[6] b[7] clk control p[0] p[10] p[11] p[12] p[13] p[14] p[15] p[1] p[2]
+ p[3] p[4] p[5] p[6] p[7] p[8] p[9] rst vccd1 vssd1
XTAP_177 vssd1 vccd1 sky130_fd_sc_hd__tapvpwrvgnd_1
XTAP_188 vssd1 vccd1 sky130_fd_sc_hd__tapvpwrvgnd_1
XTAP_199 vssd1 vccd1 sky130_fd_sc_hd__tapvpwrvgnd_1
XFILLER_0_43_70 vssd1 vssd1 vccd1 vccd1 sky130_fd_sc_hd__fill_2
X_1605__44 _1611__50/A vssd1 vssd1 vccd1 vccd1 _1676_/CLK sky130_fd_sc_hd__inv_2
XFILLER_0_40_280 vssd1 vssd1 vccd1 vccd1 sky130_ef_sc_hd__decap_12
XFILLER_0_32_236 vssd1 vssd1 vccd1 vccd1 sky130_ef_sc_hd__decap_12
X_1620__58 _1631__69/A vssd1 vssd1 vccd1 vccd1 _1690_/CLK sky130_fd_sc_hd__inv_2
XFILLER_0_23_225 vssd1 vssd1 vccd1 vccd1 sky130_ef_sc_hd__decap_12
X_1270_ _1274_/A _1273_/B _1259_/X _1267_/Y vssd1 vssd1 vccd1 vccd1 _1270_/Y sky130_fd_sc_hd__o211ai_1
XFILLER_0_1_141 vssd1 vssd1 vccd1 vccd1 sky130_fd_sc_hd__decap_6
X_0985_ _0985_/A _0985_/B vssd1 vssd1 vccd1 vccd1 _0986_/A sky130_fd_sc_hd__nand2_1
XFILLER_0_38_70 vssd1 vssd1 vccd1 vccd1 sky130_fd_sc_hd__decap_6
X_1468_ hold98/X vssd1 vssd1 vccd1 vccd1 _1694_/D sky130_fd_sc_hd__clkbuf_1
X_1399_ _1399_/A vssd1 vssd1 vccd1 vccd1 _1709_/D sky130_fd_sc_hd__clkbuf_1
XFILLER_0_1_163 vssd1 vssd1 vccd1 vccd1 sky130_fd_sc_hd__fill_1
X_1537_ _1537_/A hold41/X vssd1 vssd1 vccd1 vccd1 hold42/A sky130_fd_sc_hd__nand2_1
XFILLER_0_20_239 vssd1 vssd1 vccd1 vccd1 sky130_fd_sc_hd__decap_3
XFILLER_0_18_29 vssd1 vssd1 vccd1 vccd1 sky130_fd_sc_hd__fill_2
X_1596__35 _1612__51/A vssd1 vssd1 vccd1 vccd1 _1667_/CLK sky130_fd_sc_hd__inv_2
X_1253_ _1245_/B _1249_/A _1244_/B vssd1 vssd1 vccd1 vccd1 _1288_/C sky130_fd_sc_hd__o21a_1
X_1322_ _1327_/A _1323_/B _1323_/A vssd1 vssd1 vccd1 vccd1 _1324_/A sky130_fd_sc_hd__nand3_1
X_1184_ _1220_/B _1221_/A _1221_/B vssd1 vssd1 vccd1 vccd1 _1251_/A sky130_fd_sc_hd__nand3_1
XFILLER_0_46_169 vssd1 vssd1 vccd1 vccd1 sky130_ef_sc_hd__decap_12
XFILLER_0_46_125 vssd1 vssd1 vccd1 vccd1 sky130_ef_sc_hd__decap_12
X_0968_ _1106_/A _1107_/A vssd1 vssd1 vccd1 vccd1 _1062_/C sky130_fd_sc_hd__nor2_1
XFILLER_0_40_82 vssd1 vssd1 vccd1 vccd1 sky130_fd_sc_hd__fill_2
X_0899_ _0899_/A _0899_/B vssd1 vssd1 vccd1 vccd1 _0900_/B sky130_fd_sc_hd__nand2_1
XFILLER_0_37_147 vssd1 vssd1 vccd1 vccd1 sky130_fd_sc_hd__fill_2
XFILLER_0_37_169 vssd1 vssd1 vccd1 vccd1 sky130_ef_sc_hd__decap_12
XFILLER_0_45_27 vssd1 vssd1 vccd1 vccd1 sky130_ef_sc_hd__decap_12
XFILLER_0_28_136 vssd1 vssd1 vccd1 vccd1 sky130_fd_sc_hd__decap_4
XFILLER_0_28_114 vssd1 vssd1 vccd1 vccd1 sky130_ef_sc_hd__decap_12
XFILLER_0_9_38 vssd1 vssd1 vccd1 vccd1 sky130_fd_sc_hd__decap_8
XFILLER_0_3_225 vssd1 vssd1 vccd1 vccd1 sky130_fd_sc_hd__fill_1
X_1305_ _1330_/B _1305_/B vssd1 vssd1 vccd1 vccd1 _1314_/B sky130_fd_sc_hd__and2_1
X_1236_ _1236_/A _1236_/B vssd1 vssd1 vccd1 vccd1 _1361_/B sky130_fd_sc_hd__nor2_1
X_1167_ _1167_/A vssd1 vssd1 vccd1 vccd1 _1168_/C sky130_fd_sc_hd__inv_2
X_1098_ _1098_/A _1098_/B _1098_/C vssd1 vssd1 vccd1 vccd1 _1103_/B sky130_fd_sc_hd__nand3_1
XFILLER_0_19_125 vssd1 vssd1 vccd1 vccd1 sky130_fd_sc_hd__decap_8
XFILLER_0_40_109 vssd1 vssd1 vccd1 vccd1 sky130_fd_sc_hd__decap_8
XFILLER_0_33_161 vssd1 vssd1 vccd1 vccd1 sky130_fd_sc_hd__decap_4
XFILLER_0_0_217 vssd1 vssd1 vccd1 vccd1 sky130_fd_sc_hd__decap_6
X_1021_ _1021_/A vssd1 vssd1 vccd1 vccd1 _1022_/B sky130_fd_sc_hd__inv_2
XFILLER_0_31_109 vssd1 vssd1 vccd1 vccd1 sky130_fd_sc_hd__decap_3
XFILLER_0_21_40 vssd1 vssd1 vccd1 vccd1 sky130_ef_sc_hd__decap_12
XFILLER_0_46_81 vssd1 vssd1 vccd1 vccd1 sky130_fd_sc_hd__decap_3
XFILLER_0_34_3 vssd1 vssd1 vccd1 vccd1 sky130_ef_sc_hd__decap_12
X_1219_ _1364_/C _1219_/B vssd1 vssd1 vccd1 vccd1 _1236_/A sky130_fd_sc_hd__nand2_1
XFILLER_0_1_94 vssd1 vssd1 vccd1 vccd1 sky130_fd_sc_hd__decap_3
XFILLER_0_30_197 vssd1 vssd1 vccd1 vccd1 sky130_ef_sc_hd__decap_12
Xhold52 hold52/A vssd1 vssd1 vccd1 vccd1 hold52/X sky130_fd_sc_hd__dlygate4sd3_1
Xhold63 hold63/A vssd1 vssd1 vccd1 vccd1 hold63/X sky130_fd_sc_hd__dlygate4sd3_1
Xhold41 hold41/A vssd1 vssd1 vccd1 vccd1 hold41/X sky130_fd_sc_hd__dlygate4sd3_1
Xhold74 hold74/A vssd1 vssd1 vccd1 vccd1 hold74/X sky130_fd_sc_hd__dlygate4sd3_1
Xhold30 hold30/A vssd1 vssd1 vccd1 vccd1 hold30/X sky130_fd_sc_hd__dlygate4sd3_1
XFILLER_0_26_29 vssd1 vssd1 vccd1 vccd1 sky130_ef_sc_hd__decap_12
Xhold85 hold85/A vssd1 vssd1 vccd1 vccd1 hold85/X sky130_fd_sc_hd__dlygate4sd3_1
Xhold96 hold96/A vssd1 vssd1 vccd1 vccd1 hold96/X sky130_fd_sc_hd__dlygate4sd3_1
X_1626__64 _1630__68/A vssd1 vssd1 vccd1 vccd1 _1696_/CLK sky130_fd_sc_hd__inv_2
XTAP_337 vssd1 vccd1 sky130_fd_sc_hd__tapvpwrvgnd_1
XTAP_326 vssd1 vccd1 sky130_fd_sc_hd__tapvpwrvgnd_1
XTAP_315 vssd1 vccd1 sky130_fd_sc_hd__tapvpwrvgnd_1
XTAP_304 vssd1 vccd1 sky130_fd_sc_hd__tapvpwrvgnd_1
X_1570_ _1570_/A vssd1 vssd1 vccd1 vccd1 _1571_/A sky130_fd_sc_hd__inv_2
XFILLER_0_44_212 vssd1 vssd1 vccd1 vccd1 sky130_ef_sc_hd__decap_12
XFILLER_0_29_264 vssd1 vssd1 vccd1 vccd1 sky130_fd_sc_hd__fill_1
X_1004_ _1345_/B _1004_/B vssd1 vssd1 vccd1 vccd1 _1347_/B sky130_fd_sc_hd__nand2_1
XFILLER_0_44_256 vssd1 vssd1 vccd1 vccd1 sky130_fd_sc_hd__fill_2
X_1699_ _1699_/CLK hold7/X vssd1 vssd1 vccd1 vccd1 _1699_/Q sky130_fd_sc_hd__dfxtp_1
XFILLER_0_12_186 vssd1 vssd1 vccd1 vccd1 sky130_fd_sc_hd__decap_8
XFILLER_0_35_278 vssd1 vssd1 vccd1 vccd1 sky130_fd_sc_hd__fill_2
Xoutput20 _1695_/Q vssd1 vssd1 vccd1 vccd1 p[10] sky130_fd_sc_hd__buf_12
Xoutput31 _1691_/Q vssd1 vssd1 vccd1 vccd1 p[6] sky130_fd_sc_hd__buf_12
XFILLER_0_26_234 vssd1 vssd1 vccd1 vccd1 sky130_ef_sc_hd__decap_12
XTAP_134 vssd1 vccd1 sky130_fd_sc_hd__tapvpwrvgnd_1
XTAP_123 vssd1 vccd1 sky130_fd_sc_hd__tapvpwrvgnd_1
XTAP_112 vssd1 vccd1 sky130_fd_sc_hd__tapvpwrvgnd_1
XTAP_101 vssd1 vccd1 sky130_fd_sc_hd__tapvpwrvgnd_1
XTAP_145 vssd1 vccd1 sky130_fd_sc_hd__tapvpwrvgnd_1
X_1553_ hold13/X hold2/X _1577_/A vssd1 vssd1 vccd1 vccd1 _1553_/X sky130_fd_sc_hd__or3_1
XTAP_156 vssd1 vccd1 sky130_fd_sc_hd__tapvpwrvgnd_1
X_1484_ _1482_/Y hold28/X _1592_/A vssd1 vssd1 vccd1 vccd1 hold29/A sky130_fd_sc_hd__a21oi_1
XTAP_167 vssd1 vccd1 sky130_fd_sc_hd__tapvpwrvgnd_1
XTAP_178 vssd1 vccd1 sky130_fd_sc_hd__tapvpwrvgnd_1
XTAP_189 vssd1 vccd1 sky130_fd_sc_hd__tapvpwrvgnd_1
XFILLER_0_17_223 vssd1 vssd1 vccd1 vccd1 sky130_fd_sc_hd__fill_1
XFILLER_0_40_292 vssd1 vssd1 vccd1 vccd1 sky130_fd_sc_hd__decap_6
XFILLER_0_32_248 vssd1 vssd1 vccd1 vccd1 sky130_fd_sc_hd__decap_4
XFILLER_0_7_93 vssd1 vssd1 vccd1 vccd1 sky130_fd_sc_hd__decap_8
XFILLER_0_23_204 vssd1 vssd1 vccd1 vccd1 sky130_fd_sc_hd__decap_8
XFILLER_0_23_237 vssd1 vssd1 vccd1 vccd1 sky130_ef_sc_hd__decap_12
X_0984_ _0984_/A vssd1 vssd1 vccd1 vccd1 _1347_/A sky130_fd_sc_hd__inv_2
X_1536_ hold41/X _1537_/A vssd1 vssd1 vccd1 vccd1 _1538_/A sky130_fd_sc_hd__or2_1
X_1398_ _1588_/B input8/X vssd1 vssd1 vccd1 vccd1 _1399_/A sky130_fd_sc_hd__and2_1
X_1467_ _1467_/A _1588_/B hold97/X vssd1 vssd1 vccd1 vccd1 hold98/A sky130_fd_sc_hd__and3_1
XFILLER_0_9_297 vssd1 vssd1 vccd1 vccd1 sky130_fd_sc_hd__fill_2
XFILLER_0_34_29 vssd1 vssd1 vccd1 vccd1 sky130_fd_sc_hd__fill_1
X_1252_ _1290_/A _1252_/B _1252_/C vssd1 vssd1 vccd1 vccd1 _1295_/C sky130_fd_sc_hd__nand3_2
X_1321_ _1321_/A _1330_/C vssd1 vssd1 vccd1 vccd1 _1323_/B sky130_fd_sc_hd__nand2_1
X_1183_ _1209_/B _1208_/A _1208_/B vssd1 vssd1 vccd1 vccd1 _1221_/B sky130_fd_sc_hd__nand3_1
XFILLER_0_46_137 vssd1 vssd1 vccd1 vccd1 sky130_fd_sc_hd__decap_3
X_0967_ _1682_/Q _1668_/Q vssd1 vssd1 vccd1 vccd1 _1107_/A sky130_fd_sc_hd__nand2_1
XFILLER_0_10_251 vssd1 vssd1 vccd1 vccd1 sky130_fd_sc_hd__fill_1
X_1519_ _1519_/A vssd1 vssd1 vccd1 vccd1 _1680_/D sky130_fd_sc_hd__clkbuf_1
X_0898_ _0898_/A vssd1 vssd1 vccd1 vccd1 _0909_/B sky130_fd_sc_hd__inv_2
XFILLER_0_4_61 vssd1 vssd1 vccd1 vccd1 sky130_fd_sc_hd__decap_8
XFILLER_0_37_126 vssd1 vssd1 vccd1 vccd1 sky130_ef_sc_hd__decap_12
XFILLER_0_37_104 vssd1 vssd1 vccd1 vccd1 sky130_fd_sc_hd__fill_1
XFILLER_0_45_39 vssd1 vssd1 vccd1 vccd1 sky130_ef_sc_hd__decap_12
XFILLER_0_28_126 vssd1 vssd1 vccd1 vccd1 sky130_fd_sc_hd__decap_6
XFILLER_0_10_42 vssd1 vssd1 vccd1 vccd1 sky130_fd_sc_hd__fill_2
X_1166_ _1166_/A _1167_/A vssd1 vssd1 vccd1 vccd1 _1172_/A sky130_fd_sc_hd__nand2_1
X_1235_ _1414_/A _1231_/Y _1234_/Y vssd1 vssd1 vccd1 vccd1 _1236_/B sky130_fd_sc_hd__a21oi_1
XFILLER_0_19_51 vssd1 vssd1 vccd1 vccd1 sky130_fd_sc_hd__decap_4
X_1304_ _1667_/Q _1676_/Q _1668_/Q _1675_/Q vssd1 vssd1 vccd1 vccd1 _1305_/B sky130_fd_sc_hd__a22o_1
X_1097_ _1097_/A _1097_/B vssd1 vssd1 vccd1 vccd1 _1158_/A sky130_fd_sc_hd__nand2_1
XFILLER_0_34_129 vssd1 vssd1 vccd1 vccd1 sky130_fd_sc_hd__decap_8
XFILLER_0_27_181 vssd1 vssd1 vccd1 vccd1 sky130_fd_sc_hd__decap_8
XFILLER_0_31_19 vssd1 vssd1 vccd1 vccd1 sky130_fd_sc_hd__fill_1
XFILLER_0_25_118 vssd1 vssd1 vccd1 vccd1 sky130_ef_sc_hd__decap_12
X_1020_ _1020_/A vssd1 vssd1 vccd1 vccd1 _1022_/A sky130_fd_sc_hd__inv_2
XFILLER_0_21_52 vssd1 vssd1 vccd1 vccd1 sky130_fd_sc_hd__decap_4
XFILLER_0_24_173 vssd1 vssd1 vccd1 vccd1 sky130_ef_sc_hd__decap_12
X_1149_ _1149_/A _1149_/B vssd1 vssd1 vccd1 vccd1 _1151_/A sky130_fd_sc_hd__nand2_1
X_1218_ _1218_/A _1218_/B vssd1 vssd1 vccd1 vccd1 _1219_/B sky130_fd_sc_hd__nand2_1
XFILLER_0_27_3 vssd1 vssd1 vccd1 vccd1 sky130_fd_sc_hd__decap_8
XFILLER_0_30_154 vssd1 vssd1 vccd1 vccd1 sky130_fd_sc_hd__fill_2
XFILLER_0_30_121 vssd1 vssd1 vccd1 vccd1 sky130_ef_sc_hd__decap_12
X_1654__4 _1659__9/A vssd1 vssd1 vccd1 vccd1 _1724_/CLK sky130_fd_sc_hd__inv_2
Xhold20 hold20/A vssd1 vssd1 vccd1 vccd1 hold20/X sky130_fd_sc_hd__dlygate4sd3_1
Xhold86 hold86/A vssd1 vssd1 vccd1 vccd1 hold86/X sky130_fd_sc_hd__dlygate4sd3_1
Xhold53 hold53/A vssd1 vssd1 vccd1 vccd1 hold53/X sky130_fd_sc_hd__dlygate4sd3_1
Xhold75 hold75/A vssd1 vssd1 vccd1 vccd1 hold75/X sky130_fd_sc_hd__dlygate4sd3_1
Xhold64 hold64/A vssd1 vssd1 vccd1 vccd1 hold64/X sky130_fd_sc_hd__dlygate4sd3_1
Xhold42 hold42/A vssd1 vssd1 vccd1 vccd1 hold42/X sky130_fd_sc_hd__dlygate4sd3_1
Xhold31 hold31/A vssd1 vssd1 vccd1 vccd1 hold31/X sky130_fd_sc_hd__dlygate4sd3_1
Xhold97 hold97/A vssd1 vssd1 vccd1 vccd1 hold97/X sky130_fd_sc_hd__dlygate4sd3_1
XFILLER_0_38_221 vssd1 vssd1 vccd1 vccd1 sky130_fd_sc_hd__decap_6
X_1641__24 _1644__27/A vssd1 vssd1 vccd1 vccd1 _1711_/CLK sky130_fd_sc_hd__inv_2
XTAP_338 vssd1 vccd1 sky130_fd_sc_hd__tapvpwrvgnd_1
XTAP_327 vssd1 vccd1 sky130_fd_sc_hd__tapvpwrvgnd_1
XTAP_316 vssd1 vccd1 sky130_fd_sc_hd__tapvpwrvgnd_1
XTAP_305 vssd1 vccd1 sky130_fd_sc_hd__tapvpwrvgnd_1
XFILLER_0_21_132 vssd1 vssd1 vccd1 vccd1 sky130_ef_sc_hd__decap_12
XFILLER_0_21_187 vssd1 vssd1 vccd1 vccd1 sky130_fd_sc_hd__fill_1
XFILLER_0_16_63 vssd1 vssd1 vccd1 vccd1 sky130_ef_sc_hd__decap_12
XFILLER_0_16_85 vssd1 vssd1 vccd1 vccd1 sky130_fd_sc_hd__decap_3
X_1003_ _1003_/A _1004_/B _1003_/C vssd1 vssd1 vccd1 vccd1 _1345_/B sky130_fd_sc_hd__nand3_1
XFILLER_0_44_224 vssd1 vssd1 vccd1 vccd1 sky130_ef_sc_hd__decap_12
XFILLER_0_32_73 vssd1 vssd1 vccd1 vccd1 sky130_fd_sc_hd__decap_8
XFILLER_0_29_232 vssd1 vssd1 vccd1 vccd1 sky130_fd_sc_hd__decap_3
X_1698_ _1698_/CLK hold26/X vssd1 vssd1 vccd1 vccd1 _1698_/Q sky130_fd_sc_hd__dfxtp_1
Xoutput21 _1696_/Q vssd1 vssd1 vccd1 vccd1 p[11] sky130_fd_sc_hd__buf_12
Xoutput32 _1692_/Q vssd1 vssd1 vccd1 vccd1 p[7] sky130_fd_sc_hd__buf_12
XFILLER_0_26_246 vssd1 vssd1 vccd1 vccd1 sky130_fd_sc_hd__decap_6
XFILLER_0_5_129 vssd1 vssd1 vccd1 vccd1 sky130_ef_sc_hd__decap_12
X_1552_ _1592_/A hold2/X vssd1 vssd1 vccd1 vccd1 _1674_/D sky130_fd_sc_hd__nor2_1
XTAP_135 vssd1 vccd1 sky130_fd_sc_hd__tapvpwrvgnd_1
XTAP_124 vssd1 vccd1 sky130_fd_sc_hd__tapvpwrvgnd_1
XTAP_113 vssd1 vccd1 sky130_fd_sc_hd__tapvpwrvgnd_1
XTAP_102 vssd1 vccd1 sky130_fd_sc_hd__tapvpwrvgnd_1
XTAP_146 vssd1 vccd1 sky130_fd_sc_hd__tapvpwrvgnd_1
XTAP_157 vssd1 vccd1 sky130_fd_sc_hd__tapvpwrvgnd_1
X_1483_ _1506_/A hold27/X vssd1 vssd1 vccd1 vccd1 hold28/A sky130_fd_sc_hd__nand2_1
XTAP_168 vssd1 vccd1 sky130_fd_sc_hd__tapvpwrvgnd_1
XTAP_179 vssd1 vccd1 sky130_fd_sc_hd__tapvpwrvgnd_1
XFILLER_0_27_62 vssd1 vssd1 vccd1 vccd1 sky130_ef_sc_hd__decap_12
XFILLER_0_17_213 vssd1 vssd1 vccd1 vccd1 sky130_fd_sc_hd__fill_2
XFILLER_0_16_290 vssd1 vssd1 vccd1 vccd1 sky130_fd_sc_hd__fill_1
XFILLER_0_23_249 vssd1 vssd1 vccd1 vccd1 sky130_fd_sc_hd__decap_8
X_0983_ _0983_/A _1351_/B vssd1 vssd1 vccd1 vccd1 _0984_/A sky130_fd_sc_hd__nand2_1
XFILLER_0_13_31 vssd1 vssd1 vccd1 vccd1 sky130_fd_sc_hd__decap_6
XFILLER_0_13_75 vssd1 vssd1 vccd1 vccd1 sky130_fd_sc_hd__decap_4
XFILLER_0_14_216 vssd1 vssd1 vccd1 vccd1 sky130_fd_sc_hd__decap_3
XFILLER_0_1_121 vssd1 vssd1 vccd1 vccd1 sky130_fd_sc_hd__decap_3
X_1535_ hold37/A _1541_/B vssd1 vssd1 vccd1 vccd1 _1537_/A sky130_fd_sc_hd__nor2_1
XFILLER_0_14_249 vssd1 vssd1 vccd1 vccd1 sky130_fd_sc_hd__decap_3
X_1397_ _1397_/A vssd1 vssd1 vccd1 vccd1 _1710_/D sky130_fd_sc_hd__clkbuf_1
X_1466_ hold88/X hold16/X hold96/X vssd1 vssd1 vccd1 vccd1 hold97/A sky130_fd_sc_hd__a21o_1
XFILLER_0_9_210 vssd1 vssd1 vccd1 vccd1 sky130_fd_sc_hd__decap_4
X_1320_ _1320_/A _1320_/B vssd1 vssd1 vccd1 vccd1 _1330_/C sky130_fd_sc_hd__nand2_1
X_1182_ _1182_/A _1182_/B vssd1 vssd1 vccd1 vccd1 _1221_/A sky130_fd_sc_hd__nand2_1
X_1251_ _1251_/A _1251_/B vssd1 vssd1 vccd1 vccd1 _1252_/C sky130_fd_sc_hd__nor2_1
XFILLER_0_24_63 vssd1 vssd1 vccd1 vccd1 sky130_fd_sc_hd__fill_1
X_0966_ _1680_/Q _1670_/Q vssd1 vssd1 vccd1 vccd1 _1106_/A sky130_fd_sc_hd__nand2_1
X_0897_ _0899_/A _0899_/B vssd1 vssd1 vccd1 vccd1 _0898_/A sky130_fd_sc_hd__nor2_1
XFILLER_0_4_40 vssd1 vssd1 vccd1 vccd1 sky130_fd_sc_hd__fill_1
X_1449_ _1506_/A hold24/X vssd1 vssd1 vccd1 vccd1 hold25/A sky130_fd_sc_hd__nand2_1
X_1518_ _1518_/A _1588_/B hold65/X vssd1 vssd1 vccd1 vccd1 _1519_/A sky130_fd_sc_hd__and3_1
XFILLER_0_4_73 vssd1 vssd1 vccd1 vccd1 sky130_fd_sc_hd__fill_2
XFILLER_0_37_138 vssd1 vssd1 vccd1 vccd1 sky130_fd_sc_hd__decap_3
XFILLER_0_36_193 vssd1 vssd1 vccd1 vccd1 sky130_fd_sc_hd__decap_3
X_1303_ _1303_/A _1303_/B _1303_/C _1303_/D vssd1 vssd1 vccd1 vccd1 _1330_/B sky130_fd_sc_hd__or4_1
XFILLER_0_10_98 vssd1 vssd1 vccd1 vccd1 sky130_fd_sc_hd__fill_1
X_1165_ _1239_/B _1165_/B vssd1 vssd1 vccd1 vccd1 _1167_/A sky130_fd_sc_hd__nand2_1
X_1096_ _1098_/B vssd1 vssd1 vccd1 vccd1 _1097_/B sky130_fd_sc_hd__inv_2
XFILLER_0_35_84 vssd1 vssd1 vccd1 vccd1 sky130_ef_sc_hd__decap_12
X_1234_ _1414_/B vssd1 vssd1 vccd1 vccd1 _1234_/Y sky130_fd_sc_hd__inv_2
X_1647__30 _1650__33/A vssd1 vssd1 vccd1 vccd1 _1717_/CLK sky130_fd_sc_hd__inv_2
XFILLER_0_19_138 vssd1 vssd1 vccd1 vccd1 sky130_fd_sc_hd__decap_4
X_0949_ _0953_/A _0953_/B vssd1 vssd1 vccd1 vccd1 _0989_/B sky130_fd_sc_hd__nand2_1
XFILLER_0_25_108 vssd1 vssd1 vccd1 vccd1 sky130_fd_sc_hd__decap_4
XFILLER_0_21_64 vssd1 vssd1 vccd1 vccd1 sky130_fd_sc_hd__fill_1
XFILLER_0_21_86 vssd1 vssd1 vccd1 vccd1 sky130_fd_sc_hd__fill_1
XFILLER_0_24_185 vssd1 vssd1 vccd1 vccd1 sky130_fd_sc_hd__decap_8
X_1148_ _1148_/A _1200_/A _1148_/C vssd1 vssd1 vccd1 vccd1 _1199_/A sky130_fd_sc_hd__nand3_1
X_1079_ _1079_/A _1079_/B _1079_/C vssd1 vssd1 vccd1 vccd1 _1083_/A sky130_fd_sc_hd__nand3_1
X_1217_ _1301_/B vssd1 vssd1 vccd1 vccd1 _1364_/C sky130_fd_sc_hd__inv_2
XFILLER_0_30_133 vssd1 vssd1 vccd1 vccd1 sky130_fd_sc_hd__decap_6
Xhold98 hold98/A vssd1 vssd1 vccd1 vccd1 hold98/X sky130_fd_sc_hd__dlygate4sd3_1
Xhold87 hold87/A vssd1 vssd1 vccd1 vccd1 hold87/X sky130_fd_sc_hd__dlygate4sd3_1
Xhold32 hold32/A vssd1 vssd1 vccd1 vccd1 hold32/X sky130_fd_sc_hd__dlygate4sd3_1
Xhold54 hold54/A vssd1 vssd1 vccd1 vccd1 hold54/X sky130_fd_sc_hd__dlygate4sd3_1
Xhold10 hold10/A vssd1 vssd1 vccd1 vccd1 hold10/X sky130_fd_sc_hd__dlygate4sd3_1
Xhold65 hold65/A vssd1 vssd1 vccd1 vccd1 hold65/X sky130_fd_sc_hd__dlygate4sd3_1
Xhold76 hold76/A vssd1 vssd1 vccd1 vccd1 hold76/X sky130_fd_sc_hd__dlygate4sd3_1
Xhold21 hold21/A vssd1 vssd1 vccd1 vccd1 hold21/X sky130_fd_sc_hd__dlygate4sd3_1
Xhold43 hold43/A vssd1 vssd1 vccd1 vccd1 hold43/X sky130_fd_sc_hd__dlygate4sd3_1
XFILLER_0_21_144 vssd1 vssd1 vccd1 vccd1 sky130_fd_sc_hd__decap_8
XTAP_328 vssd1 vccd1 sky130_fd_sc_hd__tapvpwrvgnd_1
XTAP_317 vssd1 vccd1 sky130_fd_sc_hd__tapvpwrvgnd_1
XTAP_306 vssd1 vccd1 sky130_fd_sc_hd__tapvpwrvgnd_1
XFILLER_0_16_75 vssd1 vssd1 vccd1 vccd1 sky130_fd_sc_hd__decap_8
X_1002_ _1342_/C vssd1 vssd1 vccd1 vccd1 _1003_/C sky130_fd_sc_hd__inv_2
XFILLER_0_44_236 vssd1 vssd1 vccd1 vccd1 sky130_fd_sc_hd__decap_8
XFILLER_0_32_85 vssd1 vssd1 vccd1 vccd1 sky130_fd_sc_hd__fill_2
XFILLER_0_32_63 vssd1 vssd1 vccd1 vccd1 sky130_fd_sc_hd__decap_6
X_1617__55 _1631__69/A vssd1 vssd1 vccd1 vccd1 _1687_/CLK sky130_fd_sc_hd__inv_2
XFILLER_0_8_105 vssd1 vssd1 vccd1 vccd1 sky130_fd_sc_hd__decap_8
X_1697_ _1697_/CLK hold23/X vssd1 vssd1 vccd1 vccd1 _1697_/Q sky130_fd_sc_hd__dfxtp_1
XFILLER_0_12_100 vssd1 vssd1 vccd1 vccd1 sky130_fd_sc_hd__fill_1
XFILLER_0_12_122 vssd1 vssd1 vccd1 vccd1 sky130_fd_sc_hd__decap_4
XFILLER_0_12_144 vssd1 vssd1 vccd1 vccd1 sky130_fd_sc_hd__decap_8
XFILLER_0_12_177 vssd1 vssd1 vccd1 vccd1 sky130_fd_sc_hd__fill_2
XFILLER_0_35_225 vssd1 vssd1 vccd1 vccd1 sky130_fd_sc_hd__decap_6
Xoutput33 _1693_/Q vssd1 vssd1 vccd1 vccd1 p[8] sky130_fd_sc_hd__buf_12
Xoutput22 _1697_/Q vssd1 vssd1 vccd1 vccd1 p[12] sky130_fd_sc_hd__buf_12
XFILLER_0_9_3 vssd1 vssd1 vccd1 vccd1 sky130_ef_sc_hd__decap_12
XFILLER_0_41_206 vssd1 vssd1 vccd1 vccd1 sky130_fd_sc_hd__fill_1
XFILLER_0_26_269 vssd1 vssd1 vccd1 vccd1 sky130_fd_sc_hd__fill_1
XFILLER_0_26_214 vssd1 vssd1 vccd1 vccd1 sky130_fd_sc_hd__decap_3
XTAP_114 vssd1 vccd1 sky130_fd_sc_hd__tapvpwrvgnd_1
XTAP_103 vssd1 vccd1 sky130_fd_sc_hd__tapvpwrvgnd_1
X_1551_ hold1/X vssd1 vssd1 vccd1 vccd1 hold2/A sky130_fd_sc_hd__inv_2
X_1482_ _1425_/B _1425_/A _1479_/A vssd1 vssd1 vccd1 vccd1 _1482_/Y sky130_fd_sc_hd__o21ai_1
XTAP_136 vssd1 vccd1 sky130_fd_sc_hd__tapvpwrvgnd_1
XTAP_125 vssd1 vccd1 sky130_fd_sc_hd__tapvpwrvgnd_1
XTAP_147 vssd1 vccd1 sky130_fd_sc_hd__tapvpwrvgnd_1
XTAP_158 vssd1 vccd1 sky130_fd_sc_hd__tapvpwrvgnd_1
XTAP_169 vssd1 vccd1 sky130_fd_sc_hd__tapvpwrvgnd_1
XFILLER_0_27_74 vssd1 vssd1 vccd1 vccd1 sky130_ef_sc_hd__decap_12
XFILLER_0_43_84 vssd1 vssd1 vccd1 vccd1 sky130_ef_sc_hd__decap_12
XFILLER_0_43_62 vssd1 vssd1 vccd1 vccd1 sky130_fd_sc_hd__decap_4
XFILLER_0_43_40 vssd1 vssd1 vccd1 vccd1 sky130_fd_sc_hd__decap_6
XFILLER_0_4_141 vssd1 vssd1 vccd1 vccd1 sky130_ef_sc_hd__decap_12
XFILLER_0_17_225 vssd1 vssd1 vccd1 vccd1 sky130_ef_sc_hd__decap_12
XFILLER_0_7_73 vssd1 vssd1 vccd1 vccd1 sky130_ef_sc_hd__decap_12
XFILLER_0_7_51 vssd1 vssd1 vccd1 vccd1 sky130_fd_sc_hd__fill_2
XFILLER_0_23_217 vssd1 vssd1 vccd1 vccd1 sky130_fd_sc_hd__decap_6
X_0982_ _0982_/A _0982_/B _0982_/C vssd1 vssd1 vccd1 vccd1 _1351_/B sky130_fd_sc_hd__nand3_1
XFILLER_0_1_111 vssd1 vssd1 vccd1 vccd1 sky130_fd_sc_hd__fill_1
X_1465_ hold17/A _1506_/A hold96/X vssd1 vssd1 vccd1 vccd1 _1467_/A sky130_fd_sc_hd__or3b_1
X_1534_ hold44/X _1534_/B vssd1 vssd1 vccd1 vccd1 _1541_/B sky130_fd_sc_hd__nor2_1
X_1396_ _1588_/B input9/X vssd1 vssd1 vccd1 vccd1 _1397_/A sky130_fd_sc_hd__and2_1
XFILLER_0_9_266 vssd1 vssd1 vccd1 vccd1 sky130_fd_sc_hd__fill_2
XFILLER_0_20_209 vssd1 vssd1 vccd1 vccd1 sky130_fd_sc_hd__decap_6
X_1250_ _1250_/A _1250_/B vssd1 vssd1 vccd1 vccd1 _1290_/A sky130_fd_sc_hd__nand2_1
X_1181_ _1208_/B vssd1 vssd1 vccd1 vccd1 _1182_/B sky130_fd_sc_hd__inv_2
XFILLER_0_40_85 vssd1 vssd1 vccd1 vccd1 sky130_ef_sc_hd__decap_12
X_0965_ _1036_/C _0965_/B vssd1 vssd1 vccd1 vccd1 _0977_/B sky130_fd_sc_hd__nand2b_1
XFILLER_0_6_247 vssd1 vssd1 vccd1 vccd1 sky130_fd_sc_hd__decap_4
XFILLER_0_6_258 vssd1 vssd1 vccd1 vccd1 sky130_fd_sc_hd__decap_6
X_0896_ _0896_/A _1681_/Q _1671_/Q vssd1 vssd1 vccd1 vccd1 _0899_/B sky130_fd_sc_hd__nand3_1
XFILLER_0_4_85 vssd1 vssd1 vccd1 vccd1 sky130_fd_sc_hd__fill_2
XFILLER_0_10_242 vssd1 vssd1 vccd1 vccd1 sky130_fd_sc_hd__fill_2
XFILLER_0_10_253 vssd1 vssd1 vccd1 vccd1 sky130_ef_sc_hd__decap_12
XFILLER_0_10_297 vssd1 vssd1 vccd1 vccd1 sky130_fd_sc_hd__fill_2
X_1448_ hold88/X vssd1 vssd1 vccd1 vccd1 _1506_/A sky130_fd_sc_hd__inv_2
X_1517_ hold37/A _1521_/A hold64/X vssd1 vssd1 vccd1 vccd1 hold65/A sky130_fd_sc_hd__o21ai_1
X_1379_ _1592_/A _1577_/A vssd1 vssd1 vccd1 vccd1 _1719_/D sky130_fd_sc_hd__nor2_1
XFILLER_0_45_172 vssd1 vssd1 vccd1 vccd1 sky130_ef_sc_hd__decap_12
XFILLER_0_45_161 vssd1 vssd1 vccd1 vccd1 sky130_fd_sc_hd__decap_6
XFILLER_0_28_106 vssd1 vssd1 vccd1 vccd1 sky130_fd_sc_hd__decap_3
XFILLER_0_36_161 vssd1 vssd1 vccd1 vccd1 sky130_ef_sc_hd__decap_12
XFILLER_0_10_77 vssd1 vssd1 vccd1 vccd1 sky130_fd_sc_hd__decap_6
XFILLER_0_10_88 vssd1 vssd1 vccd1 vccd1 sky130_fd_sc_hd__fill_2
X_1233_ _1233_/A _1233_/B _1233_/C vssd1 vssd1 vccd1 vccd1 _1414_/B sky130_fd_sc_hd__nand3_1
X_1302_ _1302_/A _1302_/B _1302_/C vssd1 vssd1 vccd1 vccd1 _1376_/A sky130_fd_sc_hd__nand3_2
XFILLER_0_19_97 vssd1 vssd1 vccd1 vccd1 sky130_ef_sc_hd__decap_12
X_1095_ _1156_/A _1095_/B vssd1 vssd1 vccd1 vccd1 _1098_/B sky130_fd_sc_hd__nand2_1
X_1164_ _1671_/Q _1676_/Q _1672_/Q _1675_/Q vssd1 vssd1 vccd1 vccd1 _1165_/B sky130_fd_sc_hd__a22o_1
XFILLER_0_35_96 vssd1 vssd1 vccd1 vccd1 sky130_ef_sc_hd__decap_12
X_0948_ _1064_/B _0948_/B vssd1 vssd1 vccd1 vccd1 _0953_/B sky130_fd_sc_hd__nand2_1
X_1662__12 _1613_/A vssd1 vssd1 vccd1 vccd1 _1732_/CLK sky130_fd_sc_hd__inv_2
XFILLER_0_42_197 vssd1 vssd1 vccd1 vccd1 sky130_ef_sc_hd__decap_12
X_0879_ _0902_/A _0879_/B _0879_/C vssd1 vssd1 vccd1 vccd1 _0901_/A sky130_fd_sc_hd__nand3_2
XFILLER_0_18_194 vssd1 vssd1 vccd1 vccd1 sky130_fd_sc_hd__fill_2
XFILLER_0_24_197 vssd1 vssd1 vccd1 vccd1 sky130_ef_sc_hd__decap_12
X_1216_ _1218_/B _1218_/A vssd1 vssd1 vccd1 vccd1 _1301_/B sky130_fd_sc_hd__nor2_1
X_1147_ _1151_/B vssd1 vssd1 vccd1 vccd1 _1148_/C sky130_fd_sc_hd__inv_2
X_1078_ _1078_/A _1078_/B vssd1 vssd1 vccd1 vccd1 _1080_/A sky130_fd_sc_hd__nand2_1
XFILLER_0_1_53 vssd1 vssd1 vccd1 vccd1 sky130_fd_sc_hd__decap_3
Xhold22 hold22/A vssd1 vssd1 vccd1 vccd1 hold22/X sky130_fd_sc_hd__dlygate4sd3_1
Xhold11 hold11/A vssd1 vssd1 vccd1 vccd1 hold11/X sky130_fd_sc_hd__dlygate4sd3_1
Xhold66 hold66/A vssd1 vssd1 vccd1 vccd1 hold66/X sky130_fd_sc_hd__dlygate4sd3_1
Xhold88 hold88/A vssd1 vssd1 vccd1 vccd1 hold88/X sky130_fd_sc_hd__dlymetal6s2s_1
Xhold44 hold44/A vssd1 vssd1 vccd1 vccd1 hold44/X sky130_fd_sc_hd__dlygate4sd3_1
Xhold77 hold77/A vssd1 vssd1 vccd1 vccd1 hold77/X sky130_fd_sc_hd__dlygate4sd3_1
Xhold55 hold55/A vssd1 vssd1 vccd1 vccd1 hold55/X sky130_fd_sc_hd__dlygate4sd3_1
Xhold99 hold99/A vssd1 vssd1 vccd1 vccd1 hold99/X sky130_fd_sc_hd__dlygate4sd3_1
Xhold33 hold33/A vssd1 vssd1 vccd1 vccd1 hold33/X sky130_fd_sc_hd__dlygate4sd3_1