*SPEF "ieee 1481-1999"
*DESIGN "vmsu_8bit_top"
*DATE "11:11:11 Fri 11 11, 1111"
*VENDOR "OpenRCX"
*PROGRAM "Parallel Extraction"
*VERSION "1.0"
*DESIGN_FLOW "NAME_SCOPE LOCAL" "PIN_CAP NONE"
*DIVIDER /
*DELIMITER :
*BUS_DELIMITER []
*T_UNIT 1 NS
*C_UNIT 1 PF
*R_UNIT 1 OHM
*L_UNIT 1 HENRY

*NAME_MAP
*1 a[0]
*2 a[1]
*3 a[2]
*4 a[3]
*5 a[4]
*6 a[5]
*7 a[6]
*8 a[7]
*9 b[0]
*10 b[1]
*11 b[2]
*12 b[3]
*13 b[4]
*14 b[5]
*15 b[6]
*16 b[7]
*17 clk
*18 control
*19 p[0]
*20 p[10]
*21 p[11]
*22 p[12]
*23 p[13]
*24 p[14]
*25 p[15]
*26 p[1]
*27 p[2]
*28 p[3]
*29 p[4]
*30 p[5]
*31 p[6]
*32 p[7]
*33 p[8]
*34 p[9]
*35 rst
*38 FA0\.q
*39 FA0\.rst
*40 FA1\.q
*41 FA2\.q
*42 FA3\.q
*43 FA4\.q
*44 FA5\.q
*45 FA6\.q
*46 FA7\.q
*47 FB0\.q
*48 FB1\.q
*49 FB2\.q
*50 FB3\.q
*51 FB4\.q
*52 FB5\.q
*53 FB6\.q
*54 FB7\.q
*55 FC\.q
*56 M0\.FAM0\.q
*57 M0\.FAM1\.q
*58 M0\.FAM2\.q
*59 M0\.FAM3\.q
*60 M0\.FAM4\.q
*61 M0\.FAM5\.q
*62 M0\.FAM6\.q
*63 M0\.FAM7\.q
*64 M0\.FBM0\.q
*65 M0\.FBM1\.q
*66 M0\.FBM2\.q
*67 M0\.FBM3\.q
*68 M0\.FBM4\.q
*69 M0\.FBM5\.q
*70 M0\.FBM6\.q
*71 M0\.FBM7\.q
*72 M0\.FCM1\.q
*73 M0\.FCM2\.q
*74 M0\.FCM3\.q
*75 M0\.FCM4\.q
*76 M0\.FPM0\.q
*77 M0\.FPM1\.q
*78 M0\.FPM10\.q
*79 M0\.FPM11\.q
*80 M0\.FPM12\.q
*81 M0\.FPM13\.q
*82 M0\.FPM14\.q
*83 M0\.FPM15\.q
*84 M0\.FPM2\.q
*85 M0\.FPM3\.q
*86 M0\.FPM4\.q
*87 M0\.FPM5\.q
*88 M0\.FPM6\.q
*89 M0\.FPM7\.q
*90 M0\.FPM8\.q
*91 M0\.FPM9\.q
*92 _0069_
*93 _0070_
*94 _0071_
*95 _0072_
*96 _0073_
*97 _0074_
*98 _0075_
*99 _0076_
*100 _0077_
*101 _0078_
*102 _0079_
*103 _0080_
*104 _0081_
*105 _0082_
*106 _0083_
*107 _0084_
*108 _0085_
*109 _0086_
*110 _0087_
*111 _0088_
*112 _0089_
*113 _0090_
*114 _0091_
*115 _0092_
*116 _0093_
*117 _0094_
*118 _0095_
*119 _0096_
*120 _0097_
*121 _0098_
*122 _0099_
*123 _0100_
*124 _0101_
*125 _0102_
*126 _0103_
*127 _0104_
*128 _0105_
*129 _0106_
*130 _0107_
*131 _0108_
*132 _0109_
*133 _0110_
*134 _0111_
*135 _0112_
*136 _0113_
*137 _0114_
*138 _0115_
*139 _0116_
*140 _0117_
*141 _0118_
*142 _0119_
*143 _0120_
*144 _0121_
*145 _0122_
*146 _0123_
*147 _0124_
*148 _0125_
*149 _0126_
*150 _0127_
*151 _0128_
*152 _0129_
*153 _0130_
*154 _0131_
*155 _0132_
*156 _0133_
*157 _0134_
*158 _0135_
*159 _0136_
*160 _0137_
*161 _0138_
*162 _0139_
*163 _0140_
*164 _0141_
*165 _0142_
*166 _0143_
*167 _0144_
*168 _0145_
*169 _0146_
*170 _0147_
*171 _0148_
*172 _0149_
*173 _0150_
*174 _0151_
*175 _0152_
*176 _0153_
*177 _0154_
*178 _0155_
*179 _0156_
*180 _0157_
*181 _0158_
*182 _0159_
*183 _0160_
*184 _0161_
*185 _0162_
*186 _0163_
*187 _0164_
*188 _0165_
*189 _0166_
*190 _0167_
*191 _0168_
*192 _0169_
*193 _0170_
*194 _0171_
*195 _0172_
*196 _0173_
*197 _0174_
*198 _0175_
*199 _0176_
*200 _0177_
*201 _0178_
*202 _0179_
*203 _0180_
*204 _0181_
*205 _0182_
*206 _0183_
*207 _0184_
*208 _0185_
*209 _0186_
*210 _0187_
*211 _0188_
*212 _0189_
*213 _0190_
*214 _0191_
*215 _0192_
*216 _0193_
*217 _0194_
*218 _0195_
*219 _0196_
*220 _0197_
*221 _0198_
*222 _0199_
*223 _0200_
*224 _0201_
*225 _0202_
*226 _0203_
*227 _0204_
*228 _0205_
*229 _0206_
*230 _0207_
*231 _0208_
*232 _0209_
*233 _0210_
*234 _0211_
*235 _0212_
*236 _0213_
*237 _0214_
*238 _0215_
*239 _0216_
*240 _0217_
*241 _0218_
*242 _0219_
*243 _0220_
*244 _0221_
*245 _0222_
*246 _0223_
*247 _0224_
*248 _0225_
*249 _0226_
*250 _0227_
*251 _0228_
*252 _0229_
*253 _0230_
*254 _0231_
*255 _0232_
*256 _0233_
*257 _0234_
*258 _0235_
*259 _0236_
*260 _0237_
*261 _0238_
*262 _0239_
*263 _0240_
*264 _0241_
*265 _0242_
*266 _0243_
*267 _0244_
*268 _0245_
*269 _0246_
*270 _0247_
*271 _0248_
*272 _0249_
*273 _0250_
*274 _0251_
*275 _0252_
*276 _0253_
*277 _0254_
*278 _0255_
*279 _0256_
*280 _0257_
*281 _0258_
*282 _0259_
*283 _0260_
*284 _0261_
*285 _0262_
*286 _0263_
*287 _0264_
*288 _0265_
*289 _0266_
*290 _0267_
*291 _0268_
*292 _0269_
*293 _0270_
*294 _0271_
*295 _0272_
*296 _0273_
*297 _0274_
*298 _0275_
*299 _0276_
*300 _0277_
*301 _0278_
*302 _0279_
*303 _0280_
*304 _0281_
*305 _0282_
*306 _0283_
*307 _0284_
*308 _0285_
*309 _0286_
*310 _0287_
*311 _0288_
*312 _0289_
*313 _0290_
*314 _0291_
*315 _0292_
*316 _0293_
*317 _0294_
*318 _0295_
*319 _0296_
*320 _0297_
*321 _0298_
*322 _0299_
*323 _0300_
*324 _0301_
*325 _0302_
*326 _0303_
*327 _0304_
*328 _0305_
*329 _0306_
*330 _0307_
*331 _0308_
*332 _0309_
*333 _0310_
*334 _0311_
*335 _0312_
*336 _0313_
*337 _0314_
*338 _0315_
*339 _0316_
*340 _0317_
*341 _0318_
*342 _0319_
*343 _0320_
*344 _0321_
*345 _0322_
*346 _0323_
*347 _0324_
*348 _0325_
*349 _0326_
*350 _0327_
*351 _0328_
*352 _0329_
*353 _0330_
*354 _0331_
*355 _0332_
*356 _0333_
*357 _0334_
*358 _0335_
*359 _0336_
*360 _0337_
*361 _0338_
*362 _0339_
*363 _0340_
*364 _0341_
*365 _0342_
*366 _0343_
*367 _0344_
*368 _0345_
*369 _0346_
*370 _0347_
*371 _0348_
*372 _0349_
*373 _0350_
*374 _0351_
*375 _0352_
*376 _0353_
*377 _0354_
*378 _0355_
*379 _0356_
*380 _0357_
*381 _0358_
*382 _0359_
*383 _0360_
*384 _0361_
*385 _0362_
*386 _0363_
*387 _0364_
*388 _0365_
*389 _0366_
*390 _0367_
*391 _0368_
*392 _0369_
*393 _0370_
*394 _0371_
*395 _0372_
*396 _0373_
*397 _0374_
*398 _0375_
*399 _0376_
*400 _0377_
*401 _0378_
*402 _0379_
*403 _0380_
*404 _0381_
*405 _0382_
*406 _0383_
*407 _0384_
*408 _0385_
*409 _0386_
*410 _0387_
*411 _0388_
*412 _0389_
*413 _0390_
*414 _0391_
*415 _0392_
*416 _0393_
*417 _0394_
*418 _0395_
*419 _0396_
*420 _0397_
*421 _0398_
*422 _0399_
*423 _0400_
*424 _0401_
*425 _0402_
*426 _0403_
*427 _0404_
*428 _0405_
*429 _0406_
*430 _0407_
*431 _0408_
*432 _0409_
*433 _0410_
*434 _0411_
*435 _0412_
*436 _0413_
*437 _0414_
*438 _0415_
*439 _0416_
*440 _0417_
*441 _0418_
*442 _0419_
*443 _0420_
*444 _0421_
*445 _0422_
*446 _0423_
*447 _0424_
*448 _0425_
*449 _0426_
*450 _0427_
*451 _0428_
*452 _0429_
*453 _0430_
*454 _0431_
*455 _0432_
*456 _0433_
*457 _0434_
*458 _0435_
*459 _0436_
*460 _0437_
*461 _0438_
*462 _0439_
*463 _0440_
*464 _0441_
*465 _0442_
*466 _0443_
*467 _0444_
*468 _0445_
*469 _0446_
*470 _0447_
*471 _0448_
*472 _0449_
*473 _0450_
*474 _0451_
*475 _0452_
*476 _0453_
*477 _0454_
*478 _0455_
*479 _0456_
*480 _0457_
*481 _0458_
*482 _0459_
*483 _0460_
*484 _0461_
*485 _0462_
*486 _0463_
*487 _0464_
*488 _0465_
*489 _0466_
*490 _0467_
*491 _0468_
*492 _0469_
*493 _0470_
*494 _0471_
*495 _0472_
*496 _0473_
*497 _0474_
*498 _0475_
*499 _0476_
*500 _0477_
*501 _0478_
*502 _0479_
*503 _0480_
*504 _0481_
*505 _0482_
*506 _0483_
*507 _0484_
*508 _0485_
*509 _0486_
*510 _0487_
*511 _0488_
*512 _0489_
*513 _0490_
*514 _0491_
*515 _0492_
*516 _0493_
*517 _0494_
*518 _0495_
*519 _0496_
*520 _0497_
*521 _0498_
*522 _0499_
*523 _0500_
*524 _0501_
*525 _0502_
*526 _0503_
*527 _0504_
*528 _0505_
*529 _0506_
*530 _0507_
*531 _0508_
*532 _0509_
*533 _0510_
*534 _0511_
*535 _0512_
*536 _0513_
*537 _0514_
*538 _0515_
*539 _0516_
*540 _0517_
*541 _0518_
*542 _0519_
*543 _0520_
*544 _0521_
*545 _0522_
*546 _0523_
*547 _0524_
*548 _0525_
*549 _0526_
*550 _0527_
*551 _0528_
*552 _0529_
*553 _0530_
*554 _0531_
*555 _0532_
*556 _0533_
*557 _0534_
*558 _0535_
*559 _0536_
*560 _0537_
*561 _0538_
*562 _0539_
*563 _0540_
*564 _0541_
*565 _0542_
*566 _0543_
*567 _0544_
*568 _0545_
*569 _0546_
*570 _0547_
*571 _0548_
*572 _0549_
*573 _0550_
*574 _0551_
*575 _0552_
*576 _0553_
*577 _0554_
*578 _0555_
*579 _0556_
*580 _0557_
*581 _0558_
*582 _0559_
*583 _0560_
*584 _0561_
*585 _0562_
*586 _0563_
*587 _0564_
*588 _0565_
*589 _0566_
*590 _0567_
*591 _0568_
*592 _0569_
*593 _0570_
*594 _0571_
*595 _0572_
*596 _0573_
*597 _0574_
*598 _0575_
*599 _0576_
*600 _0577_
*601 _0578_
*602 _0579_
*603 _0580_
*604 _0581_
*605 _0582_
*606 _0583_
*607 _0584_
*608 _0585_
*609 _0586_
*610 _0587_
*611 _0588_
*612 _0589_
*613 _0590_
*614 _0591_
*615 _0592_
*616 _0593_
*617 _0594_
*618 _0595_
*619 _0596_
*620 _0597_
*621 _0598_
*622 _0599_
*623 _0600_
*624 _0601_
*625 _0602_
*626 _0603_
*627 _0604_
*628 _0605_
*629 _0606_
*630 _0607_
*631 _0608_
*632 _0609_
*633 _0610_
*634 _0611_
*635 _0612_
*636 _0613_
*637 _0614_
*638 _0615_
*639 _0616_
*640 _0617_
*641 _0618_
*642 _0619_
*643 _0620_
*644 _0621_
*645 _0622_
*646 _0623_
*647 _0624_
*648 _0625_
*649 _0626_
*650 _0627_
*651 _0628_
*652 _0629_
*653 _0630_
*654 _0631_
*655 _0632_
*656 _0633_
*657 _0634_
*658 _0635_
*659 _0636_
*660 _0637_
*661 _0638_
*662 _0639_
*663 _0640_
*664 _0641_
*665 _0642_
*666 _0643_
*667 _0644_
*668 _0645_
*669 _0646_
*670 _0647_
*671 _0648_
*672 _0649_
*673 _0650_
*674 _0651_
*675 _0652_
*676 _0653_
*677 _0654_
*678 _0655_
*679 _0656_
*680 _0657_
*681 _0658_
*682 _0659_
*683 _0660_
*684 _0661_
*685 _0662_
*686 _0663_
*687 _0664_
*688 _0665_
*689 _0666_
*690 _0667_
*691 _0668_
*692 _0669_
*693 _0670_
*694 _0671_
*695 _0672_
*696 _0673_
*697 _0674_
*698 _0675_
*699 _0676_
*700 _0677_
*701 _0678_
*702 _0679_
*703 _0680_
*704 _0681_
*705 _0682_
*706 _0683_
*707 _0684_
*708 _0685_
*709 _0686_
*710 _0687_
*711 _0688_
*712 _0689_
*713 _0690_
*714 _0691_
*715 _0692_
*716 _0693_
*717 _0694_
*718 _0695_
*719 _0696_
*720 _0697_
*721 _0698_
*722 _0699_
*723 _0700_
*724 _0701_
*725 _0702_
*726 _0703_
*727 _0704_
*728 _0705_
*729 _0706_
*730 _0707_
*731 _0708_
*732 _0709_
*733 _0710_
*734 _0711_
*735 _0712_
*736 _0713_
*737 _0714_
*738 _0715_
*739 _0716_
*740 _0717_
*741 _0718_
*742 _0719_
*743 _0720_
*744 _0721_
*745 _0722_
*746 _0723_
*747 _0724_
*748 _0725_
*749 _0726_
*750 _0727_
*751 _0728_
*752 _0729_
*753 _0730_
*754 _0731_
*755 _0732_
*756 _0733_
*757 _0734_
*758 _0735_
*759 _0736_
*760 _0737_
*761 _0738_
*762 _0739_
*763 _0740_
*764 _0741_
*765 _0742_
*766 _0743_
*767 _0744_
*768 _0745_
*769 _0746_
*770 _0747_
*771 _0748_
*772 _0749_
*773 _0750_
*774 _0751_
*775 _0752_
*776 _0753_
*777 _0754_
*778 _0755_
*779 _0756_
*780 _0757_
*781 _0758_
*782 _0759_
*783 _0760_
*784 _0761_
*785 _0762_
*786 _0763_
*787 _0764_
*788 _0765_
*789 _0766_
*790 _0767_
*791 _0768_
*792 _0769_
*793 _0770_
*794 _0771_
*795 _0772_
*796 _0773_
*797 _0774_
*798 _0775_
*799 _0776_
*800 _0777_
*801 _0778_
*802 _0779_
*803 _0780_
*804 _0781_
*805 _0782_
*806 _0783_
*807 _0784_
*808 _0785_
*809 _0786_
*810 _0787_
*811 _0788_
*812 _0789_
*813 _0790_
*814 _0791_
*815 _0792_
*816 _0793_
*817 _0794_
*818 _0795_
*819 _0796_
*820 _0797_
*821 _0798_
*822 _0799_
*823 _0800_
*824 _0801_
*825 _0802_
*826 _0803_
*827 _0804_
*828 _0805_
*829 _0806_
*830 _0807_
*831 _0808_
*832 _0809_
*833 _0810_
*834 _0811_
*835 _0812_
*836 _0813_
*837 _0814_
*838 _0815_
*839 _0816_
*840 _0817_
*841 _0818_
*842 _0819_
*843 _0820_
*844 _0821_
*845 _0822_
*846 _0823_
*847 _0824_
*848 _0825_
*849 _0826_
*850 _0827_
*851 _0828_
*852 _0829_
*853 _0830_
*854 _0831_
*855 _0832_
*856 clknet_0__0138_
*857 clknet_0__0830_
*858 clknet_0__0831_
*859 clknet_0__0832_
*860 clknet_0_clk
*861 clknet_1_0__leaf__0138_
*862 clknet_1_0__leaf__0830_
*863 clknet_1_0__leaf__0831_
*864 clknet_1_0__leaf__0832_
*865 clknet_1_0__leaf_clk
*866 clknet_1_1__leaf__0138_
*867 clknet_1_1__leaf__0830_
*868 clknet_1_1__leaf__0831_
*869 clknet_1_1__leaf__0832_
*870 clknet_1_1__leaf_clk
*871 net1
*872 net10
*873 net100
*874 net101
*875 net102
*876 net103
*877 net104
*878 net105
*879 net106
*880 net107
*881 net108
*882 net109
*883 net11
*884 net110
*885 net111
*886 net112
*887 net113
*888 net114
*889 net115
*890 net116
*891 net117
*892 net118
*893 net119
*894 net12
*895 net120
*896 net121
*897 net122
*898 net123
*899 net124
*900 net125
*901 net126
*902 net127
*903 net128
*904 net129
*905 net13
*906 net130
*907 net131
*908 net132
*909 net133
*910 net134
*911 net135
*912 net136
*913 net137
*914 net138
*915 net139
*916 net14
*917 net140
*918 net141
*919 net142
*920 net143
*921 net144
*922 net145
*923 net146
*924 net147
*925 net148
*926 net149
*927 net15
*928 net150
*929 net151
*930 net152
*931 net153
*932 net154
*933 net155
*934 net156
*935 net157
*936 net158
*937 net159
*938 net16
*939 net160
*940 net161
*941 net162
*942 net163
*943 net164
*944 net165
*945 net166
*946 net167
*947 net168
*948 net169
*949 net17
*950 net170
*951 net171
*952 net172
*953 net173
*954 net174
*955 net175
*956 net176
*957 net177
*958 net178
*959 net179
*960 net18
*961 net180
*962 net181
*963 net182
*964 net183
*965 net184
*966 net185
*967 net186
*968 net187
*969 net188
*970 net189
*971 net19
*972 net190
*973 net191
*974 net192
*975 net193
*976 net194
*977 net195
*978 net196
*979 net197
*980 net198
*981 net199
*982 net2
*983 net20
*984 net200
*985 net201
*986 net202
*987 net203
*988 net204
*989 net205
*990 net206
*991 net207
*992 net208
*993 net209
*994 net21
*995 net210
*996 net211
*997 net212
*998 net213
*999 net214
*1000 net22
*1001 net23
*1002 net24
*1003 net25
*1004 net26
*1005 net27
*1006 net28
*1007 net29
*1008 net3
*1009 net30
*1010 net31
*1011 net32
*1012 net33
*1013 net34
*1014 net35
*1015 net36
*1016 net37
*1017 net38
*1018 net39
*1019 net4
*1020 net40
*1021 net41
*1022 net42
*1023 net43
*1024 net44
*1025 net45
*1026 net46
*1027 net47
*1028 net48
*1029 net49
*1030 net5
*1031 net50
*1032 net51
*1033 net52
*1034 net53
*1035 net54
*1036 net55
*1037 net56
*1038 net57
*1039 net58
*1040 net59
*1041 net6
*1042 net60
*1043 net61
*1044 net62
*1045 net63
*1046 net64
*1047 net65
*1048 net66
*1049 net67
*1050 net68
*1051 net69
*1052 net7
*1053 net70
*1054 net71
*1055 net72
*1056 net73
*1057 net74
*1058 net75
*1059 net76
*1060 net77
*1061 net78
*1062 net79
*1063 net8
*1064 net80
*1065 net81
*1066 net82
*1067 net83
*1068 net84
*1069 net85
*1070 net86
*1071 net87
*1072 net88
*1073 net89
*1074 net9
*1075 net90
*1076 net91
*1077 net92
*1078 net93
*1079 net94
*1080 net95
*1081 net96
*1082 net97
*1083 net98
*1084 net99
*1085 FILLER_0_0_1009
*1086 FILLER_0_0_101
*1087 FILLER_0_0_1012
*1088 FILLER_0_0_1015
*1089 FILLER_0_0_1018
*1090 FILLER_0_0_1021
*1091 FILLER_0_0_1024
*1092 FILLER_0_0_1027
*1093 FILLER_0_0_1030
*1094 FILLER_0_0_1033
*1095 FILLER_0_0_104
*1096 FILLER_0_0_1053
*1097 FILLER_0_0_1056
*1098 FILLER_0_0_107
*1099 FILLER_0_0_110
*1100 FILLER_0_0_113
*1101 FILLER_0_0_116
*1102 FILLER_0_0_119
*1103 FILLER_0_0_12
*1104 FILLER_0_0_122
*1105 FILLER_0_0_125
*1106 FILLER_0_0_128
*1107 FILLER_0_0_132
*1108 FILLER_0_0_135
*1109 FILLER_0_0_138
*1110 FILLER_0_0_141
*1111 FILLER_0_0_144
*1112 FILLER_0_0_147
*1113 FILLER_0_0_15
*1114 FILLER_0_0_150
*1115 FILLER_0_0_153
*1116 FILLER_0_0_156
*1117 FILLER_0_0_159
*1118 FILLER_0_0_163
*1119 FILLER_0_0_166
*1120 FILLER_0_0_169
*1121 FILLER_0_0_172
*1122 FILLER_0_0_175
*1123 FILLER_0_0_178
*1124 FILLER_0_0_18
*1125 FILLER_0_0_181
*1126 FILLER_0_0_184
*1127 FILLER_0_0_187
*1128 FILLER_0_0_190
*1129 FILLER_0_0_194
*1130 FILLER_0_0_197
*1131 FILLER_0_0_200
*1132 FILLER_0_0_203
*1133 FILLER_0_0_206
*1134 FILLER_0_0_209
*1135 FILLER_0_0_21
*1136 FILLER_0_0_212
*1137 FILLER_0_0_215
*1138 FILLER_0_0_218
*1139 FILLER_0_0_221
*1140 FILLER_0_0_228
*1141 FILLER_0_0_231
*1142 FILLER_0_0_234
*1143 FILLER_0_0_237
*1144 FILLER_0_0_24
*1145 FILLER_0_0_240
*1146 FILLER_0_0_243
*1147 FILLER_0_0_246
*1148 FILLER_0_0_249
*1149 FILLER_0_0_256
*1150 FILLER_0_0_259
*1151 FILLER_0_0_262
*1152 FILLER_0_0_265
*1153 FILLER_0_0_268
*1154 FILLER_0_0_27
*1155 FILLER_0_0_271
*1156 FILLER_0_0_274
*1157 FILLER_0_0_277
*1158 FILLER_0_0_281
*1159 FILLER_0_0_287
*1160 FILLER_0_0_29
*1161 FILLER_0_0_290
*1162 FILLER_0_0_293
*1163 FILLER_0_0_296
*1164 FILLER_0_0_299
*1165 FILLER_0_0_3
*1166 FILLER_0_0_302
*1167 FILLER_0_0_305
*1168 FILLER_0_0_309
*1169 FILLER_0_0_312
*1170 FILLER_0_0_318
*1171 FILLER_0_0_32
*1172 FILLER_0_0_321
*1173 FILLER_0_0_324
*1174 FILLER_0_0_327
*1175 FILLER_0_0_330
*1176 FILLER_0_0_333
*1177 FILLER_0_0_337
*1178 FILLER_0_0_340
*1179 FILLER_0_0_343
*1180 FILLER_0_0_349
*1181 FILLER_0_0_35
*1182 FILLER_0_0_352
*1183 FILLER_0_0_355
*1184 FILLER_0_0_358
*1185 FILLER_0_0_361
*1186 FILLER_0_0_365
*1187 FILLER_0_0_368
*1188 FILLER_0_0_371
*1189 FILLER_0_0_374
*1190 FILLER_0_0_380
*1191 FILLER_0_0_383
*1192 FILLER_0_0_386
*1193 FILLER_0_0_389
*1194 FILLER_0_0_39
*1195 FILLER_0_0_393
*1196 FILLER_0_0_396
*1197 FILLER_0_0_399
*1198 FILLER_0_0_402
*1199 FILLER_0_0_405
*1200 FILLER_0_0_413
*1201 FILLER_0_0_416
*1202 FILLER_0_0_419
*1203 FILLER_0_0_42
*1204 FILLER_0_0_421
*1205 FILLER_0_0_424
*1206 FILLER_0_0_427
*1207 FILLER_0_0_430
*1208 FILLER_0_0_433
*1209 FILLER_0_0_436
*1210 FILLER_0_0_442
*1211 FILLER_0_0_445
*1212 FILLER_0_0_449
*1213 FILLER_0_0_45
*1214 FILLER_0_0_452
*1215 FILLER_0_0_455
*1216 FILLER_0_0_458
*1217 FILLER_0_0_461
*1218 FILLER_0_0_464
*1219 FILLER_0_0_467
*1220 FILLER_0_0_473
*1221 FILLER_0_0_477
*1222 FILLER_0_0_48
*1223 FILLER_0_0_480
*1224 FILLER_0_0_483
*1225 FILLER_0_0_486
*1226 FILLER_0_0_489
*1227 FILLER_0_0_492
*1228 FILLER_0_0_495
*1229 FILLER_0_0_498
*1230 FILLER_0_0_505
*1231 FILLER_0_0_508
*1232 FILLER_0_0_51
*1233 FILLER_0_0_511
*1234 FILLER_0_0_514
*1235 FILLER_0_0_517
*1236 FILLER_0_0_520
*1237 FILLER_0_0_523
*1238 FILLER_0_0_526
*1239 FILLER_0_0_529
*1240 FILLER_0_0_536
*1241 FILLER_0_0_539
*1242 FILLER_0_0_54
*1243 FILLER_0_0_542
*1244 FILLER_0_0_545
*1245 FILLER_0_0_548
*1246 FILLER_0_0_551
*1247 FILLER_0_0_554
*1248 FILLER_0_0_557
*1249 FILLER_0_0_561
*1250 FILLER_0_0_566
*1251 FILLER_0_0_569
*1252 FILLER_0_0_57
*1253 FILLER_0_0_572
*1254 FILLER_0_0_575
*1255 FILLER_0_0_578
*1256 FILLER_0_0_581
*1257 FILLER_0_0_584
*1258 FILLER_0_0_587
*1259 FILLER_0_0_6
*1260 FILLER_0_0_60
*1261 FILLER_0_0_605
*1262 FILLER_0_0_608
*1263 FILLER_0_0_611
*1264 FILLER_0_0_614
*1265 FILLER_0_0_617
*1266 FILLER_0_0_620
*1267 FILLER_0_0_623
*1268 FILLER_0_0_63
*1269 FILLER_0_0_641
*1270 FILLER_0_0_645
*1271 FILLER_0_0_648
*1272 FILLER_0_0_651
*1273 FILLER_0_0_654
*1274 FILLER_0_0_66
*1275 FILLER_0_0_673
*1276 FILLER_0_0_676
*1277 FILLER_0_0_679
*1278 FILLER_0_0_682
*1279 FILLER_0_0_70
*1280 FILLER_0_0_701
*1281 FILLER_0_0_704
*1282 FILLER_0_0_707
*1283 FILLER_0_0_710
*1284 FILLER_0_0_729
*1285 FILLER_0_0_73
*1286 FILLER_0_0_732
*1287 FILLER_0_0_735
*1288 FILLER_0_0_738
*1289 FILLER_0_0_741
*1290 FILLER_0_0_744
*1291 FILLER_0_0_747
*1292 FILLER_0_0_750
*1293 FILLER_0_0_753
*1294 FILLER_0_0_76
*1295 FILLER_0_0_773
*1296 FILLER_0_0_776
*1297 FILLER_0_0_779
*1298 FILLER_0_0_782
*1299 FILLER_0_0_79
*1300 FILLER_0_0_801
*1301 FILLER_0_0_804
*1302 FILLER_0_0_807
*1303 FILLER_0_0_810
*1304 FILLER_0_0_82
*1305 FILLER_0_0_829
*1306 FILLER_0_0_832
*1307 FILLER_0_0_835
*1308 FILLER_0_0_838
*1309 FILLER_0_0_841
*1310 FILLER_0_0_85
*1311 FILLER_0_0_858
*1312 FILLER_0_0_861
*1313 FILLER_0_0_864
*1314 FILLER_0_0_867
*1315 FILLER_0_0_869
*1316 FILLER_0_0_872
*1317 FILLER_0_0_88
*1318 FILLER_0_0_889
*1319 FILLER_0_0_892
*1320 FILLER_0_0_895
*1321 FILLER_0_0_897
*1322 FILLER_0_0_9
*1323 FILLER_0_0_900
*1324 FILLER_0_0_903
*1325 FILLER_0_0_91
*1326 FILLER_0_0_920
*1327 FILLER_0_0_923
*1328 FILLER_0_0_925
*1329 FILLER_0_0_928
*1330 FILLER_0_0_931
*1331 FILLER_0_0_934
*1332 FILLER_0_0_94
*1333 FILLER_0_0_951
*1334 FILLER_0_0_953
*1335 FILLER_0_0_956
*1336 FILLER_0_0_959
*1337 FILLER_0_0_962
*1338 FILLER_0_0_97
*1339 FILLER_0_0_981
*1340 FILLER_0_0_984
*1341 FILLER_0_0_987
*1342 FILLER_0_0_990
*1343 FILLER_0_100_100
*1344 FILLER_0_100_1002
*1345 FILLER_0_100_1005
*1346 FILLER_0_100_1008
*1347 FILLER_0_100_1011
*1348 FILLER_0_100_1014
*1349 FILLER_0_100_1017
*1350 FILLER_0_100_1020
*1351 FILLER_0_100_1023
*1352 FILLER_0_100_1026
*1353 FILLER_0_100_1029
*1354 FILLER_0_100_103
*1355 FILLER_0_100_1032
*1356 FILLER_0_100_1035
*1357 FILLER_0_100_1037
*1358 FILLER_0_100_1040
*1359 FILLER_0_100_1043
*1360 FILLER_0_100_1046
*1361 FILLER_0_100_1049
*1362 FILLER_0_100_1052
*1363 FILLER_0_100_1055
*1364 FILLER_0_100_1058
*1365 FILLER_0_100_106
*1366 FILLER_0_100_109
*1367 FILLER_0_100_112
*1368 FILLER_0_100_115
*1369 FILLER_0_100_118
*1370 FILLER_0_100_12
*1371 FILLER_0_100_121
*1372 FILLER_0_100_124
*1373 FILLER_0_100_127
*1374 FILLER_0_100_130
*1375 FILLER_0_100_133
*1376 FILLER_0_100_136
*1377 FILLER_0_100_139
*1378 FILLER_0_100_141
*1379 FILLER_0_100_144
*1380 FILLER_0_100_147
*1381 FILLER_0_100_15
*1382 FILLER_0_100_150
*1383 FILLER_0_100_153
*1384 FILLER_0_100_156
*1385 FILLER_0_100_159
*1386 FILLER_0_100_162
*1387 FILLER_0_100_165
*1388 FILLER_0_100_168
*1389 FILLER_0_100_171
*1390 FILLER_0_100_174
*1391 FILLER_0_100_177
*1392 FILLER_0_100_18
*1393 FILLER_0_100_180
*1394 FILLER_0_100_183
*1395 FILLER_0_100_186
*1396 FILLER_0_100_189
*1397 FILLER_0_100_192
*1398 FILLER_0_100_195
*1399 FILLER_0_100_197
*1400 FILLER_0_100_200
*1401 FILLER_0_100_203
*1402 FILLER_0_100_206
*1403 FILLER_0_100_209
*1404 FILLER_0_100_21
*1405 FILLER_0_100_212
*1406 FILLER_0_100_215
*1407 FILLER_0_100_218
*1408 FILLER_0_100_221
*1409 FILLER_0_100_224
*1410 FILLER_0_100_227
*1411 FILLER_0_100_230
*1412 FILLER_0_100_233
*1413 FILLER_0_100_236
*1414 FILLER_0_100_239
*1415 FILLER_0_100_24
*1416 FILLER_0_100_242
*1417 FILLER_0_100_245
*1418 FILLER_0_100_248
*1419 FILLER_0_100_251
*1420 FILLER_0_100_253
*1421 FILLER_0_100_256
*1422 FILLER_0_100_259
*1423 FILLER_0_100_262
*1424 FILLER_0_100_265
*1425 FILLER_0_100_268
*1426 FILLER_0_100_27
*1427 FILLER_0_100_271
*1428 FILLER_0_100_274
*1429 FILLER_0_100_277
*1430 FILLER_0_100_280
*1431 FILLER_0_100_283
*1432 FILLER_0_100_286
*1433 FILLER_0_100_289
*1434 FILLER_0_100_29
*1435 FILLER_0_100_292
*1436 FILLER_0_100_295
*1437 FILLER_0_100_298
*1438 FILLER_0_100_3
*1439 FILLER_0_100_301
*1440 FILLER_0_100_304
*1441 FILLER_0_100_307
*1442 FILLER_0_100_309
*1443 FILLER_0_100_312
*1444 FILLER_0_100_315
*1445 FILLER_0_100_318
*1446 FILLER_0_100_32
*1447 FILLER_0_100_321
*1448 FILLER_0_100_324
*1449 FILLER_0_100_327
*1450 FILLER_0_100_330
*1451 FILLER_0_100_333
*1452 FILLER_0_100_336
*1453 FILLER_0_100_339
*1454 FILLER_0_100_342
*1455 FILLER_0_100_345
*1456 FILLER_0_100_348
*1457 FILLER_0_100_35
*1458 FILLER_0_100_351
*1459 FILLER_0_100_354
*1460 FILLER_0_100_357
*1461 FILLER_0_100_360
*1462 FILLER_0_100_363
*1463 FILLER_0_100_365
*1464 FILLER_0_100_368
*1465 FILLER_0_100_371
*1466 FILLER_0_100_374
*1467 FILLER_0_100_377
*1468 FILLER_0_100_38
*1469 FILLER_0_100_380
*1470 FILLER_0_100_383
*1471 FILLER_0_100_386
*1472 FILLER_0_100_389
*1473 FILLER_0_100_392
*1474 FILLER_0_100_395
*1475 FILLER_0_100_398
*1476 FILLER_0_100_401
*1477 FILLER_0_100_404
*1478 FILLER_0_100_407
*1479 FILLER_0_100_41
*1480 FILLER_0_100_410
*1481 FILLER_0_100_413
*1482 FILLER_0_100_416
*1483 FILLER_0_100_419
*1484 FILLER_0_100_421
*1485 FILLER_0_100_424
*1486 FILLER_0_100_427
*1487 FILLER_0_100_430
*1488 FILLER_0_100_433
*1489 FILLER_0_100_436
*1490 FILLER_0_100_439
*1491 FILLER_0_100_44
*1492 FILLER_0_100_442
*1493 FILLER_0_100_445
*1494 FILLER_0_100_448
*1495 FILLER_0_100_451
*1496 FILLER_0_100_454
*1497 FILLER_0_100_457
*1498 FILLER_0_100_460
*1499 FILLER_0_100_463
*1500 FILLER_0_100_466
*1501 FILLER_0_100_469
*1502 FILLER_0_100_47
*1503 FILLER_0_100_472
*1504 FILLER_0_100_475
*1505 FILLER_0_100_477
*1506 FILLER_0_100_480
*1507 FILLER_0_100_483
*1508 FILLER_0_100_486
*1509 FILLER_0_100_489
*1510 FILLER_0_100_492
*1511 FILLER_0_100_495
*1512 FILLER_0_100_498
*1513 FILLER_0_100_50
*1514 FILLER_0_100_501
*1515 FILLER_0_100_504
*1516 FILLER_0_100_507
*1517 FILLER_0_100_510
*1518 FILLER_0_100_513
*1519 FILLER_0_100_516
*1520 FILLER_0_100_519
*1521 FILLER_0_100_522
*1522 FILLER_0_100_525
*1523 FILLER_0_100_528
*1524 FILLER_0_100_53
*1525 FILLER_0_100_531
*1526 FILLER_0_100_533
*1527 FILLER_0_100_536
*1528 FILLER_0_100_539
*1529 FILLER_0_100_542
*1530 FILLER_0_100_545
*1531 FILLER_0_100_548
*1532 FILLER_0_100_551
*1533 FILLER_0_100_554
*1534 FILLER_0_100_557
*1535 FILLER_0_100_56
*1536 FILLER_0_100_560
*1537 FILLER_0_100_563
*1538 FILLER_0_100_566
*1539 FILLER_0_100_569
*1540 FILLER_0_100_572
*1541 FILLER_0_100_575
*1542 FILLER_0_100_578
*1543 FILLER_0_100_581
*1544 FILLER_0_100_584
*1545 FILLER_0_100_587
*1546 FILLER_0_100_589
*1547 FILLER_0_100_59
*1548 FILLER_0_100_592
*1549 FILLER_0_100_595
*1550 FILLER_0_100_598
*1551 FILLER_0_100_6
*1552 FILLER_0_100_601
*1553 FILLER_0_100_604
*1554 FILLER_0_100_607
*1555 FILLER_0_100_610
*1556 FILLER_0_100_613
*1557 FILLER_0_100_616
*1558 FILLER_0_100_619
*1559 FILLER_0_100_62
*1560 FILLER_0_100_622
*1561 FILLER_0_100_625
*1562 FILLER_0_100_628
*1563 FILLER_0_100_631
*1564 FILLER_0_100_634
*1565 FILLER_0_100_637
*1566 FILLER_0_100_640
*1567 FILLER_0_100_643
*1568 FILLER_0_100_645
*1569 FILLER_0_100_648
*1570 FILLER_0_100_65
*1571 FILLER_0_100_651
*1572 FILLER_0_100_654
*1573 FILLER_0_100_657
*1574 FILLER_0_100_660
*1575 FILLER_0_100_663
*1576 FILLER_0_100_666
*1577 FILLER_0_100_669
*1578 FILLER_0_100_672
*1579 FILLER_0_100_675
*1580 FILLER_0_100_678
*1581 FILLER_0_100_68
*1582 FILLER_0_100_681
*1583 FILLER_0_100_684
*1584 FILLER_0_100_687
*1585 FILLER_0_100_690
*1586 FILLER_0_100_693
*1587 FILLER_0_100_696
*1588 FILLER_0_100_699
*1589 FILLER_0_100_701
*1590 FILLER_0_100_704
*1591 FILLER_0_100_707
*1592 FILLER_0_100_71
*1593 FILLER_0_100_710
*1594 FILLER_0_100_713
*1595 FILLER_0_100_716
*1596 FILLER_0_100_719
*1597 FILLER_0_100_722
*1598 FILLER_0_100_725
*1599 FILLER_0_100_728
*1600 FILLER_0_100_731
*1601 FILLER_0_100_734
*1602 FILLER_0_100_737
*1603 FILLER_0_100_74
*1604 FILLER_0_100_740
*1605 FILLER_0_100_743
*1606 FILLER_0_100_746
*1607 FILLER_0_100_749
*1608 FILLER_0_100_752
*1609 FILLER_0_100_755
*1610 FILLER_0_100_757
*1611 FILLER_0_100_760
*1612 FILLER_0_100_763
*1613 FILLER_0_100_766
*1614 FILLER_0_100_769
*1615 FILLER_0_100_77
*1616 FILLER_0_100_772
*1617 FILLER_0_100_775
*1618 FILLER_0_100_778
*1619 FILLER_0_100_781
*1620 FILLER_0_100_784
*1621 FILLER_0_100_787
*1622 FILLER_0_100_790
*1623 FILLER_0_100_793
*1624 FILLER_0_100_796
*1625 FILLER_0_100_799
*1626 FILLER_0_100_80
*1627 FILLER_0_100_802
*1628 FILLER_0_100_805
*1629 FILLER_0_100_808
*1630 FILLER_0_100_811
*1631 FILLER_0_100_813
*1632 FILLER_0_100_816
*1633 FILLER_0_100_819
*1634 FILLER_0_100_822
*1635 FILLER_0_100_825
*1636 FILLER_0_100_828
*1637 FILLER_0_100_83
*1638 FILLER_0_100_831
*1639 FILLER_0_100_834
*1640 FILLER_0_100_837
*1641 FILLER_0_100_840
*1642 FILLER_0_100_843
*1643 FILLER_0_100_846
*1644 FILLER_0_100_849
*1645 FILLER_0_100_85
*1646 FILLER_0_100_852
*1647 FILLER_0_100_855
*1648 FILLER_0_100_858
*1649 FILLER_0_100_861
*1650 FILLER_0_100_864
*1651 FILLER_0_100_867
*1652 FILLER_0_100_869
*1653 FILLER_0_100_872
*1654 FILLER_0_100_875
*1655 FILLER_0_100_878
*1656 FILLER_0_100_88
*1657 FILLER_0_100_881
*1658 FILLER_0_100_884
*1659 FILLER_0_100_887
*1660 FILLER_0_100_890
*1661 FILLER_0_100_893
*1662 FILLER_0_100_896
*1663 FILLER_0_100_899
*1664 FILLER_0_100_9
*1665 FILLER_0_100_902
*1666 FILLER_0_100_905
*1667 FILLER_0_100_908
*1668 FILLER_0_100_91
*1669 FILLER_0_100_911
*1670 FILLER_0_100_914
*1671 FILLER_0_100_917
*1672 FILLER_0_100_920
*1673 FILLER_0_100_923
*1674 FILLER_0_100_925
*1675 FILLER_0_100_928
*1676 FILLER_0_100_931
*1677 FILLER_0_100_934
*1678 FILLER_0_100_937
*1679 FILLER_0_100_94
*1680 FILLER_0_100_940
*1681 FILLER_0_100_943
*1682 FILLER_0_100_946
*1683 FILLER_0_100_949
*1684 FILLER_0_100_952
*1685 FILLER_0_100_955
*1686 FILLER_0_100_958
*1687 FILLER_0_100_961
*1688 FILLER_0_100_964
*1689 FILLER_0_100_967
*1690 FILLER_0_100_97
*1691 FILLER_0_100_970
*1692 FILLER_0_100_973
*1693 FILLER_0_100_976
*1694 FILLER_0_100_979
*1695 FILLER_0_100_981
*1696 FILLER_0_100_984
*1697 FILLER_0_100_987
*1698 FILLER_0_100_990
*1699 FILLER_0_100_993
*1700 FILLER_0_100_996
*1701 FILLER_0_100_999
*1702 FILLER_0_101_1001
*1703 FILLER_0_101_1004
*1704 FILLER_0_101_1007
*1705 FILLER_0_101_1009
*1706 FILLER_0_101_1012
*1707 FILLER_0_101_1015
*1708 FILLER_0_101_1018
*1709 FILLER_0_101_102
*1710 FILLER_0_101_1021
*1711 FILLER_0_101_1024
*1712 FILLER_0_101_1027
*1713 FILLER_0_101_1030
*1714 FILLER_0_101_1033
*1715 FILLER_0_101_1036
*1716 FILLER_0_101_1039
*1717 FILLER_0_101_1042
*1718 FILLER_0_101_1045
*1719 FILLER_0_101_1048
*1720 FILLER_0_101_105
*1721 FILLER_0_101_1051
*1722 FILLER_0_101_1054
*1723 FILLER_0_101_1057
*1724 FILLER_0_101_108
*1725 FILLER_0_101_111
*1726 FILLER_0_101_113
*1727 FILLER_0_101_116
*1728 FILLER_0_101_119
*1729 FILLER_0_101_12
*1730 FILLER_0_101_122
*1731 FILLER_0_101_125
*1732 FILLER_0_101_128
*1733 FILLER_0_101_131
*1734 FILLER_0_101_134
*1735 FILLER_0_101_137
*1736 FILLER_0_101_140
*1737 FILLER_0_101_143
*1738 FILLER_0_101_146
*1739 FILLER_0_101_149
*1740 FILLER_0_101_15
*1741 FILLER_0_101_152
*1742 FILLER_0_101_155
*1743 FILLER_0_101_158
*1744 FILLER_0_101_161
*1745 FILLER_0_101_164
*1746 FILLER_0_101_167
*1747 FILLER_0_101_169
*1748 FILLER_0_101_172
*1749 FILLER_0_101_175
*1750 FILLER_0_101_178
*1751 FILLER_0_101_18
*1752 FILLER_0_101_181
*1753 FILLER_0_101_184
*1754 FILLER_0_101_187
*1755 FILLER_0_101_190
*1756 FILLER_0_101_193
*1757 FILLER_0_101_196
*1758 FILLER_0_101_199
*1759 FILLER_0_101_202
*1760 FILLER_0_101_205
*1761 FILLER_0_101_208
*1762 FILLER_0_101_21
*1763 FILLER_0_101_211
*1764 FILLER_0_101_214
*1765 FILLER_0_101_217
*1766 FILLER_0_101_220
*1767 FILLER_0_101_223
*1768 FILLER_0_101_225
*1769 FILLER_0_101_228
*1770 FILLER_0_101_231
*1771 FILLER_0_101_234
*1772 FILLER_0_101_237
*1773 FILLER_0_101_24
*1774 FILLER_0_101_240
*1775 FILLER_0_101_243
*1776 FILLER_0_101_246
*1777 FILLER_0_101_249
*1778 FILLER_0_101_252
*1779 FILLER_0_101_255
*1780 FILLER_0_101_258
*1781 FILLER_0_101_261
*1782 FILLER_0_101_264
*1783 FILLER_0_101_267
*1784 FILLER_0_101_27
*1785 FILLER_0_101_270
*1786 FILLER_0_101_273
*1787 FILLER_0_101_276
*1788 FILLER_0_101_279
*1789 FILLER_0_101_281
*1790 FILLER_0_101_284
*1791 FILLER_0_101_287
*1792 FILLER_0_101_290
*1793 FILLER_0_101_293
*1794 FILLER_0_101_296
*1795 FILLER_0_101_299
*1796 FILLER_0_101_3
*1797 FILLER_0_101_30
*1798 FILLER_0_101_302
*1799 FILLER_0_101_305
*1800 FILLER_0_101_308
*1801 FILLER_0_101_311
*1802 FILLER_0_101_314
*1803 FILLER_0_101_317
*1804 FILLER_0_101_320
*1805 FILLER_0_101_323
*1806 FILLER_0_101_326
*1807 FILLER_0_101_329
*1808 FILLER_0_101_33
*1809 FILLER_0_101_332
*1810 FILLER_0_101_335
*1811 FILLER_0_101_337
*1812 FILLER_0_101_340
*1813 FILLER_0_101_343
*1814 FILLER_0_101_346
*1815 FILLER_0_101_349
*1816 FILLER_0_101_352
*1817 FILLER_0_101_355
*1818 FILLER_0_101_358
*1819 FILLER_0_101_36
*1820 FILLER_0_101_361
*1821 FILLER_0_101_364
*1822 FILLER_0_101_367
*1823 FILLER_0_101_370
*1824 FILLER_0_101_373
*1825 FILLER_0_101_376