*SPEF "ieee 1481-1999"
*DESIGN "vmsu_8bit_top"
*DATE "11:11:11 Fri 11 11, 1111"
*VENDOR "OpenRCX"
*PROGRAM "Parallel Extraction"
*VERSION "1.0"
*DESIGN_FLOW "NAME_SCOPE LOCAL" "PIN_CAP NONE"
*DIVIDER /
*DELIMITER :
*BUS_DELIMITER []
*T_UNIT 1 NS
*C_UNIT 1 PF
*R_UNIT 1 OHM
*L_UNIT 1 HENRY

*NAME_MAP
*1 a[0]
*2 a[1]
*3 a[2]
*4 a[3]
*5 a[4]
*6 a[5]
*7 a[6]
*8 a[7]
*9 b[0]
*10 b[1]
*11 b[2]
*12 b[3]
*13 b[4]
*14 b[5]
*15 b[6]
*16 b[7]
*17 clk
*18 control
*19 p[0]
*20 p[10]
*21 p[11]
*22 p[12]
*23 p[13]
*24 p[14]
*25 p[15]
*26 p[1]
*27 p[2]
*28 p[3]
*29 p[4]
*30 p[5]
*31 p[6]
*32 p[7]
*33 p[8]
*34 p[9]
*35 rst
*38 FA0\.q
*39 FA0\.rst
*40 FA1\.q
*41 FA2\.q
*42 FA3\.q
*43 FA4\.q
*44 FA5\.q
*45 FA6\.q
*46 FA7\.q
*47 FB0\.q
*48 FB1\.q
*49 FB2\.q
*50 FB3\.q
*51 FB4\.q
*52 FB5\.q
*53 FB6\.q
*54 FB7\.q
*55 FC\.q
*56 M0\.FAM0\.q
*57 M0\.FAM1\.q
*58 M0\.FAM2\.q
*59 M0\.FAM3\.q
*60 M0\.FAM4\.q
*61 M0\.FAM5\.q
*62 M0\.FAM6\.q
*63 M0\.FAM7\.q
*64 M0\.FBM0\.q
*65 M0\.FBM1\.q
*66 M0\.FBM2\.q
*67 M0\.FBM3\.q
*68 M0\.FBM4\.q
*69 M0\.FBM5\.q
*70 M0\.FBM6\.q
*71 M0\.FBM7\.q
*72 M0\.FCM1\.q
*73 M0\.FCM2\.q
*74 M0\.FCM3\.q
*75 M0\.FCM4\.q
*76 M0\.FPM0\.q
*77 M0\.FPM1\.q
*78 M0\.FPM10\.q
*79 M0\.FPM11\.q
*80 M0\.FPM12\.q
*81 M0\.FPM13\.q
*82 M0\.FPM14\.q
*83 M0\.FPM15\.q
*84 M0\.FPM2\.q
*85 M0\.FPM3\.q
*86 M0\.FPM4\.q
*87 M0\.FPM5\.q
*88 M0\.FPM6\.q
*89 M0\.FPM7\.q
*90 M0\.FPM8\.q
*91 M0\.FPM9\.q
*92 _0069_
*93 _0070_
*94 _0071_
*95 _0072_
*96 _0073_
*97 _0074_
*98 _0075_
*99 _0076_
*100 _0077_
*101 _0078_
*102 _0079_
*103 _0080_
*104 _0081_
*105 _0082_
*106 _0083_
*107 _0084_
*108 _0085_
*109 _0086_
*110 _0087_
*111 _0088_
*112 _0089_
*113 _0090_
*114 _0091_
*115 _0092_
*116 _0093_
*117 _0094_
*118 _0095_
*119 _0096_
*120 _0097_
*121 _0098_
*122 _0099_
*123 _0100_
*124 _0101_
*125 _0102_
*126 _0103_
*127 _0104_
*128 _0105_
*129 _0106_
*130 _0107_
*131 _0108_
*132 _0109_
*133 _0110_
*134 _0111_
*135 _0112_
*136 _0113_
*137 _0114_
*138 _0115_
*139 _0116_
*140 _0117_
*141 _0118_
*142 _0119_
*143 _0120_
*144 _0121_
*145 _0122_
*146 _0123_
*147 _0124_
*148 _0125_
*149 _0126_
*150 _0127_
*151 _0128_
*152 _0129_
*153 _0130_
*154 _0131_
*155 _0132_
*156 _0133_
*157 _0134_
*158 _0135_
*159 _0136_
*160 _0137_
*161 _0138_
*162 _0139_
*163 _0140_
*164 _0141_
*165 _0142_
*166 _0143_
*167 _0144_
*168 _0145_
*169 _0146_
*170 _0147_
*171 _0148_
*172 _0149_
*173 _0150_
*174 _0151_
*175 _0152_
*176 _0153_
*177 _0154_
*178 _0155_
*179 _0156_
*180 _0157_
*181 _0158_
*182 _0159_
*183 _0160_
*184 _0161_
*185 _0162_
*186 _0163_
*187 _0164_
*188 _0165_
*189 _0166_
*190 _0167_
*191 _0168_
*192 _0169_
*193 _0170_
*194 _0171_
*195 _0172_
*196 _0173_
*197 _0174_
*198 _0175_
*199 _0176_
*200 _0177_
*201 _0178_
*202 _0179_
*203 _0180_
*204 _0181_
*205 _0182_
*206 _0183_
*207 _0184_
*208 _0185_
*209 _0186_
*210 _0187_
*211 _0188_
*212 _0189_
*213 _0190_
*214 _0191_
*215 _0192_
*216 _0193_
*217 _0194_
*218 _0195_
*219 _0196_
*220 _0197_
*221 _0198_
*222 _0199_
*223 _0200_
*224 _0201_
*225 _0202_
*226 _0203_
*227 _0204_
*228 _0205_
*229 _0206_
*230 _0207_
*231 _0208_
*232 _0209_
*233 _0210_
*234 _0211_
*235 _0212_
*236 _0213_
*237 _0214_
*238 _0215_
*239 _0216_
*240 _0217_
*241 _0218_
*242 _0219_
*243 _0220_
*244 _0221_
*245 _0222_
*246 _0223_
*247 _0224_
*248 _0225_
*249 _0226_
*250 _0227_
*251 _0228_
*252 _0229_
*253 _0230_
*254 _0231_
*255 _0232_
*256 _0233_
*257 _0234_
*258 _0235_
*259 _0236_
*260 _0237_
*261 _0238_
*262 _0239_
*263 _0240_
*264 _0241_
*265 _0242_
*266 _0243_
*267 _0244_
*268 _0245_
*269 _0246_
*270 _0247_
*271 _0248_
*272 _0249_
*273 _0250_
*274 _0251_
*275 _0252_
*276 _0253_
*277 _0254_
*278 _0255_
*279 _0256_
*280 _0257_
*281 _0258_
*282 _0259_
*283 _0260_
*284 _0261_
*285 _0262_
*286 _0263_
*287 _0264_
*288 _0265_
*289 _0266_
*290 _0267_
*291 _0268_
*292 _0269_
*293 _0270_
*294 _0271_
*295 _0272_
*296 _0273_
*297 _0274_
*298 _0275_
*299 _0276_
*300 _0277_
*301 _0278_
*302 _0279_
*303 _0280_
*304 _0281_
*305 _0282_
*306 _0283_
*307 _0284_
*308 _0285_
*309 _0286_
*310 _0287_
*311 _0288_
*312 _0289_
*313 _0290_
*314 _0291_
*315 _0292_
*316 _0293_
*317 _0294_
*318 _0295_
*319 _0296_
*320 _0297_
*321 _0298_
*322 _0299_
*323 _0300_
*324 _0301_
*325 _0302_
*326 _0303_
*327 _0304_
*328 _0305_
*329 _0306_
*330 _0307_
*331 _0308_
*332 _0309_
*333 _0310_
*334 _0311_
*335 _0312_
*336 _0313_
*337 _0314_
*338 _0315_
*339 _0316_
*340 _0317_
*341 _0318_
*342 _0319_
*343 _0320_
*344 _0321_
*345 _0322_
*346 _0323_
*347 _0324_
*348 _0325_
*349 _0326_
*350 _0327_
*351 _0328_
*352 _0329_
*353 _0330_
*354 _0331_
*355 _0332_
*356 _0333_
*357 _0334_
*358 _0335_
*359 _0336_
*360 _0337_
*361 _0338_
*362 _0339_
*363 _0340_
*364 _0341_
*365 _0342_
*366 _0343_
*367 _0344_
*368 _0345_
*369 _0346_
*370 _0347_
*371 _0348_
*372 _0349_
*373 _0350_
*374 _0351_
*375 _0352_
*376 _0353_
*377 _0354_
*378 _0355_
*379 _0356_
*380 _0357_
*381 _0358_
*382 _0359_
*383 _0360_
*384 _0361_
*385 _0362_
*386 _0363_
*387 _0364_
*388 _0365_
*389 _0366_
*390 _0367_
*391 _0368_
*392 _0369_
*393 _0370_
*394 _0371_
*395 _0372_
*396 _0373_
*397 _0374_
*398 _0375_
*399 _0376_
*400 _0377_
*401 _0378_
*402 _0379_
*403 _0380_
*404 _0381_
*405 _0382_
*406 _0383_
*407 _0384_
*408 _0385_
*409 _0386_
*410 _0387_
*411 _0388_
*412 _0389_
*413 _0390_
*414 _0391_
*415 _0392_
*416 _0393_
*417 _0394_
*418 _0395_
*419 _0396_
*420 _0397_
*421 _0398_
*422 _0399_
*423 _0400_
*424 _0401_
*425 _0402_
*426 _0403_
*427 _0404_
*428 _0405_
*429 _0406_
*430 _0407_
*431 _0408_
*432 _0409_
*433 _0410_
*434 _0411_
*435 _0412_
*436 _0413_
*437 _0414_
*438 _0415_
*439 _0416_
*440 _0417_
*441 _0418_
*442 _0419_
*443 _0420_
*444 _0421_
*445 _0422_
*446 _0423_
*447 _0424_
*448 _0425_
*449 _0426_
*450 _0427_
*451 _0428_
*452 _0429_
*453 _0430_
*454 _0431_
*455 _0432_
*456 _0433_
*457 _0434_
*458 _0435_
*459 _0436_
*460 _0437_
*461 _0438_
*462 _0439_
*463 _0440_
*464 _0441_
*465 _0442_
*466 _0443_
*467 _0444_
*468 _0445_
*469 _0446_
*470 _0447_
*471 _0448_
*472 _0449_
*473 _0450_
*474 _0451_
*475 _0452_
*476 _0453_
*477 _0454_
*478 _0455_
*479 _0456_
*480 _0457_
*481 _0458_
*482 _0459_
*483 _0460_
*484 _0461_
*485 _0462_
*486 _0463_
*487 _0464_
*488 _0465_
*489 _0466_
*490 _0467_
*491 _0468_
*492 _0469_
*493 _0470_
*494 _0471_
*495 _0472_
*496 _0473_
*497 _0474_
*498 _0475_
*499 _0476_
*500 _0477_
*501 _0478_
*502 _0479_
*503 _0480_
*504 _0481_
*505 _0482_
*506 _0483_
*507 _0484_
*508 _0485_
*509 _0486_
*510 _0487_
*511 _0488_
*512 _0489_
*513 _0490_
*514 _0491_
*515 _0492_
*516 _0493_
*517 _0494_
*518 _0495_
*519 _0496_
*520 _0497_
*521 _0498_
*522 _0499_
*523 _0500_
*524 _0501_
*525 _0502_
*526 _0503_
*527 _0504_
*528 _0505_
*529 _0506_
*530 _0507_
*531 _0508_
*532 _0509_
*533 _0510_
*534 _0511_
*535 _0512_
*536 _0513_
*537 _0514_
*538 _0515_
*539 _0516_
*540 _0517_
*541 _0518_
*542 _0519_
*543 _0520_
*544 _0521_
*545 _0522_
*546 _0523_
*547 _0524_
*548 _0525_
*549 _0526_
*550 _0527_
*551 _0528_
*552 _0529_
*553 _0530_
*554 _0531_
*555 _0532_
*556 _0533_
*557 _0534_
*558 _0535_
*559 _0536_
*560 _0537_
*561 _0538_
*562 _0539_
*563 _0540_
*564 _0541_
*565 _0542_
*566 _0543_
*567 _0544_
*568 _0545_
*569 _0546_
*570 _0547_
*571 _0548_
*572 _0549_
*573 _0550_
*574 _0551_
*575 _0552_
*576 _0553_
*577 _0554_
*578 _0555_
*579 _0556_
*580 _0557_
*581 _0558_
*582 _0559_
*583 _0560_
*584 _0561_
*585 _0562_
*586 _0563_
*587 _0564_
*588 _0565_
*589 _0566_
*590 _0567_
*591 _0568_
*592 _0569_
*593 _0570_
*594 _0571_
*595 _0572_
*596 _0573_
*597 _0574_
*598 _0575_
*599 _0576_
*600 _0577_
*601 _0578_
*602 _0579_
*603 _0580_
*604 _0581_
*605 _0582_
*606 _0583_
*607 _0584_
*608 _0585_
*609 _0586_
*610 _0587_
*611 _0588_
*612 _0589_
*613 _0590_
*614 _0591_
*615 _0592_
*616 _0593_
*617 _0594_
*618 _0595_
*619 _0596_
*620 _0597_
*621 _0598_
*622 _0599_
*623 _0600_
*624 _0601_
*625 _0602_
*626 _0603_
*627 _0604_
*628 _0605_
*629 _0606_
*630 _0607_
*631 _0608_
*632 _0609_
*633 _0610_
*634 _0611_
*635 _0612_
*636 _0613_
*637 _0614_
*638 _0615_
*639 _0616_
*640 _0617_
*641 _0618_
*642 _0619_
*643 _0620_
*644 _0621_
*645 _0622_
*646 _0623_
*647 _0624_
*648 _0625_
*649 _0626_
*650 _0627_
*651 _0628_
*652 _0629_
*653 _0630_
*654 _0631_
*655 _0632_
*656 _0633_
*657 _0634_
*658 _0635_
*659 _0636_
*660 _0637_
*661 _0638_
*662 _0639_
*663 _0640_
*664 _0641_
*665 _0642_
*666 _0643_
*667 _0644_
*668 _0645_
*669 _0646_
*670 _0647_
*671 _0648_
*672 _0649_
*673 _0650_
*674 _0651_
*675 _0652_
*676 _0653_
*677 _0654_
*678 _0655_
*679 _0656_
*680 _0657_
*681 _0658_
*682 _0659_
*683 _0660_
*684 _0661_
*685 _0662_
*686 _0663_
*687 _0664_
*688 _0665_
*689 _0666_
*690 _0667_
*691 _0668_
*692 _0669_
*693 _0670_
*694 _0671_
*695 _0672_
*696 _0673_
*697 _0674_
*698 _0675_
*699 _0676_
*700 _0677_
*701 _0678_
*702 _0679_
*703 _0680_
*704 _0681_
*705 _0682_
*706 _0683_
*707 _0684_
*708 _0685_
*709 _0686_
*710 _0687_
*711 _0688_
*712 _0689_
*713 _0690_
*714 _0691_
*715 _0692_
*716 _0693_
*717 _0694_
*718 _0695_
*719 _0696_
*720 _0697_
*721 _0698_
*722 _0699_
*723 _0700_
*724 _0701_
*725 _0702_
*726 _0703_
*727 _0704_
*728 _0705_
*729 _0706_
*730 _0707_
*731 _0708_
*732 _0709_
*733 _0710_
*734 _0711_
*735 _0712_
*736 _0713_
*737 _0714_
*738 _0715_
*739 _0716_
*740 _0717_
*741 _0718_
*742 _0719_
*743 _0720_
*744 _0721_
*745 _0722_
*746 _0723_
*747 _0724_
*748 _0725_
*749 _0726_
*750 _0727_
*751 _0728_
*752 _0729_
*753 _0730_
*754 _0731_
*755 _0732_
*756 _0733_
*757 _0734_
*758 _0735_
*759 _0736_
*760 _0737_
*761 _0738_
*762 _0739_
*763 _0740_
*764 _0741_
*765 _0742_
*766 _0743_
*767 _0744_
*768 _0745_
*769 _0746_
*770 _0747_
*771 _0748_
*772 _0749_
*773 _0750_
*774 _0751_
*775 _0752_
*776 _0753_
*777 _0754_
*778 _0755_
*779 _0756_
*780 _0757_
*781 _0758_
*782 _0759_
*783 _0760_
*784 _0761_
*785 _0762_
*786 _0763_
*787 _0764_
*788 _0765_
*789 _0766_
*790 _0767_
*791 _0768_
*792 _0769_
*793 _0770_
*794 _0771_
*795 _0772_
*796 _0773_
*797 _0774_
*798 _0775_
*799 _0776_
*800 _0777_
*801 _0778_
*802 _0779_
*803 _0780_
*804 _0781_
*805 _0782_
*806 _0783_
*807 _0784_
*808 _0785_
*809 _0786_
*810 _0787_
*811 _0788_
*812 _0789_
*813 _0790_
*814 _0791_
*815 _0792_
*816 _0793_
*817 _0794_
*818 _0795_
*819 _0796_
*820 _0797_
*821 _0798_
*822 _0799_
*823 _0800_
*824 _0801_
*825 _0802_
*826 _0803_
*827 _0804_
*828 _0805_
*829 _0806_
*830 _0807_
*831 _0808_
*832 _0809_
*833 _0810_
*834 _0811_
*835 _0812_
*836 _0813_
*837 _0814_
*838 _0815_
*839 _0816_
*840 _0817_
*841 _0818_
*842 _0819_
*843 _0820_
*844 _0821_
*845 _0822_
*846 _0823_
*847 _0824_
*848 _0825_
*849 _0826_
*850 _0827_
*851 _0828_
*852 _0829_
*853 _0830_
*854 _0831_
*855 _0832_
*856 clknet_0__0138_
*857 clknet_0__0830_
*858 clknet_0__0831_
*859 clknet_0__0832_
*860 clknet_0_clk
*861 clknet_1_0__leaf__0138_
*862 clknet_1_0__leaf__0830_
*863 clknet_1_0__leaf__0831_
*864 clknet_1_0__leaf__0832_
*865 clknet_1_0__leaf_clk
*866 clknet_1_1__leaf__0138_
*867 clknet_1_1__leaf__0830_
*868 clknet_1_1__leaf__0831_
*869 clknet_1_1__leaf__0832_
*870 clknet_1_1__leaf_clk
*871 net1
*872 net10
*873 net100
*874 net101
*875 net102
*876 net103
*877 net104
*878 net105
*879 net106
*880 net107
*881 net108
*882 net109
*883 net11
*884 net110
*885 net111
*886 net112
*887 net113
*888 net114
*889 net115
*890 net116
*891 net117
*892 net118
*893 net119
*894 net12
*895 net120
*896 net121
*897 net122
*898 net123
*899 net124
*900 net125
*901 net126
*902 net127
*903 net128
*904 net129
*905 net13
*906 net130
*907 net131
*908 net132
*909 net133
*910 net134
*911 net135
*912 net136
*913 net137
*914 net138
*915 net139
*916 net14
*917 net140
*918 net141
*919 net142
*920 net143
*921 net144
*922 net145
*923 net146
*924 net147
*925 net148
*926 net149
*927 net15
*928 net150
*929 net151
*930 net152
*931 net153
*932 net154
*933 net155
*934 net156
*935 net157
*936 net158
*937 net159
*938 net16
*939 net160
*940 net161
*941 net162
*942 net163
*943 net164
*944 net165
*945 net166
*946 net167
*947 net168
*948 net169
*949 net17
*950 net170
*951 net171
*952 net172
*953 net173
*954 net174
*955 net175
*956 net176
*957 net177
*958 net178
*959 net179
*960 net18
*961 net180
*962 net181
*963 net182
*964 net183
*965 net184
*966 net185
*967 net186
*968 net187
*969 net188
*970 net189
*971 net19
*972 net190
*973 net191
*974 net192
*975 net193
*976 net194
*977 net195
*978 net196
*979 net197
*980 net198
*981 net199
*982 net2
*983 net20
*984 net200
*985 net201
*986 net202
*987 net203
*988 net204
*989 net205
*990 net206
*991 net207
*992 net208
*993 net209
*994 net21
*995 net210
*996 net211
*997 net212
*998 net22
*999 net23
*1000 net24
*1001 net25
*1002 net26
*1003 net27
*1004 net28
*1005 net29
*1006 net3
*1007 net30
*1008 net31
*1009 net32
*1010 net33
*1011 net34
*1012 net35
*1013 net36
*1014 net37
*1015 net38
*1016 net39
*1017 net4
*1018 net40
*1019 net41
*1020 net42
*1021 net43
*1022 net44
*1023 net45
*1024 net46
*1025 net47
*1026 net48
*1027 net49
*1028 net5
*1029 net50
*1030 net51
*1031 net52
*1032 net53
*1033 net54
*1034 net55
*1035 net56
*1036 net57
*1037 net58
*1038 net59
*1039 net6
*1040 net60
*1041 net61
*1042 net62
*1043 net63
*1044 net64
*1045 net65
*1046 net66
*1047 net67
*1048 net68
*1049 net69
*1050 net7
*1051 net70
*1052 net71
*1053 net72
*1054 net73
*1055 net74
*1056 net75
*1057 net76
*1058 net77
*1059 net78
*1060 net79
*1061 net8
*1062 net80
*1063 net81
*1064 net82
*1065 net83
*1066 net84
*1067 net85
*1068 net86
*1069 net87
*1070 net88
*1071 net89
*1072 net9
*1073 net90
*1074 net91
*1075 net92
*1076 net93
*1077 net94
*1078 net95
*1079 net96
*1080 net97
*1081 net98
*1082 net99
*1083 FILLER_0_0_100
*1084 FILLER_0_0_109
*1085 FILLER_0_0_113
*1086 FILLER_0_0_118
*1087 FILLER_0_0_127
*1088 FILLER_0_0_136
*1089 FILLER_0_0_141
*1090 FILLER_0_0_145
*1091 FILLER_0_0_154
*1092 FILLER_0_0_163
*1093 FILLER_0_0_167
*1094 FILLER_0_0_185
*1095 FILLER_0_0_193
*1096 FILLER_0_0_213
*1097 FILLER_0_0_217
*1098 FILLER_0_0_223
*1099 FILLER_0_0_23
*1100 FILLER_0_0_241
*1101 FILLER_0_0_249
*1102 FILLER_0_0_269
*1103 FILLER_0_0_277
*1104 FILLER_0_0_297
*1105 FILLER_0_0_32
*1106 FILLER_0_0_37
*1107 FILLER_0_0_46
*1108 FILLER_0_0_55
*1109 FILLER_0_0_57
*1110 FILLER_0_0_64
*1111 FILLER_0_0_73
*1112 FILLER_0_0_82
*1113 FILLER_0_0_85
*1114 FILLER_0_0_91
*1115 FILLER_0_10_107
*1116 FILLER_0_10_119
*1117 FILLER_0_10_131
*1118 FILLER_0_10_139
*1119 FILLER_0_10_149
*1120 FILLER_0_10_155
*1121 FILLER_0_10_159
*1122 FILLER_0_10_167
*1123 FILLER_0_10_179
*1124 FILLER_0_10_187
*1125 FILLER_0_10_192
*1126 FILLER_0_10_197
*1127 FILLER_0_10_211
*1128 FILLER_0_10_217
*1129 FILLER_0_10_223
*1130 FILLER_0_10_235
*1131 FILLER_0_10_242
*1132 FILLER_0_10_247
*1133 FILLER_0_10_251
*1134 FILLER_0_10_253
*1135 FILLER_0_10_268
*1136 FILLER_0_10_27
*1137 FILLER_0_10_297
*1138 FILLER_0_10_3
*1139 FILLER_0_10_42
*1140 FILLER_0_10_49
*1141 FILLER_0_10_61
*1142 FILLER_0_10_7
*1143 FILLER_0_10_77
*1144 FILLER_0_10_83
*1145 FILLER_0_10_88
*1146 FILLER_0_10_98
*1147 FILLER_0_11_107
*1148 FILLER_0_11_111
*1149 FILLER_0_11_113
*1150 FILLER_0_11_139
*1151 FILLER_0_11_15
*1152 FILLER_0_11_164
*1153 FILLER_0_11_169
*1154 FILLER_0_11_181
*1155 FILLER_0_11_19
*1156 FILLER_0_11_193
*1157 FILLER_0_11_201
*1158 FILLER_0_11_223
*1159 FILLER_0_11_233
*1160 FILLER_0_11_245
*1161 FILLER_0_11_257
*1162 FILLER_0_11_265
*1163 FILLER_0_11_270
*1164 FILLER_0_11_298
*1165 FILLER_0_11_3
*1166 FILLER_0_11_40
*1167 FILLER_0_11_48
*1168 FILLER_0_11_54
*1169 FILLER_0_11_57
*1170 FILLER_0_11_63
*1171 FILLER_0_11_67
*1172 FILLER_0_11_71
*1173 FILLER_0_11_80
*1174 FILLER_0_11_92
*1175 FILLER_0_12_100
*1176 FILLER_0_12_107
*1177 FILLER_0_12_113
*1178 FILLER_0_12_122
*1179 FILLER_0_12_139
*1180 FILLER_0_12_144
*1181 FILLER_0_12_15
*1182 FILLER_0_12_152
*1183 FILLER_0_12_169
*1184 FILLER_0_12_177
*1185 FILLER_0_12_186
*1186 FILLER_0_12_194
*1187 FILLER_0_12_200
*1188 FILLER_0_12_21
*1189 FILLER_0_12_228
*1190 FILLER_0_12_240
*1191 FILLER_0_12_253
*1192 FILLER_0_12_27
*1193 FILLER_0_12_285
*1194 FILLER_0_12_298
*1195 FILLER_0_12_3
*1196 FILLER_0_12_40
*1197 FILLER_0_12_49
*1198 FILLER_0_12_58
*1199 FILLER_0_12_65
*1200 FILLER_0_12_77
*1201 FILLER_0_12_83
*1202 FILLER_0_12_85
*1203 FILLER_0_12_93
*1204 FILLER_0_13_108
*1205 FILLER_0_13_113
*1206 FILLER_0_13_125
*1207 FILLER_0_13_138
*1208 FILLER_0_13_146
*1209 FILLER_0_13_15
*1210 FILLER_0_13_204
*1211 FILLER_0_13_216
*1212 FILLER_0_13_225
*1213 FILLER_0_13_233
*1214 FILLER_0_13_279
*1215 FILLER_0_13_297
*1216 FILLER_0_13_3
*1217 FILLER_0_13_31
*1218 FILLER_0_13_55
*1219 FILLER_0_13_57
*1220 FILLER_0_13_70
*1221 FILLER_0_13_75
*1222 FILLER_0_13_79
*1223 FILLER_0_14_110
*1224 FILLER_0_14_118
*1225 FILLER_0_14_141
*1226 FILLER_0_14_15
*1227 FILLER_0_14_153
*1228 FILLER_0_14_168
*1229 FILLER_0_14_195
*1230 FILLER_0_14_20
*1231 FILLER_0_14_208
*1232 FILLER_0_14_216
*1233 FILLER_0_14_241
*1234 FILLER_0_14_249
*1235 FILLER_0_14_256
*1236 FILLER_0_14_264
*1237 FILLER_0_14_286
*1238 FILLER_0_14_290
*1239 FILLER_0_14_3
*1240 FILLER_0_14_37
*1241 FILLER_0_14_49
*1242 FILLER_0_14_61
*1243 FILLER_0_14_72
*1244 FILLER_0_14_88
*1245 FILLER_0_15_113
*1246 FILLER_0_15_157
*1247 FILLER_0_15_167
*1248 FILLER_0_15_180
*1249 FILLER_0_15_206
*1250 FILLER_0_15_214
*1251 FILLER_0_15_219
*1252 FILLER_0_15_223
*1253 FILLER_0_15_236
*1254 FILLER_0_15_248
*1255 FILLER_0_15_260
*1256 FILLER_0_15_272
*1257 FILLER_0_15_279
*1258 FILLER_0_15_281
*1259 FILLER_0_15_294
*1260 FILLER_0_15_298
*1261 FILLER_0_15_3
*1262 FILLER_0_15_30
*1263 FILLER_0_15_42
*1264 FILLER_0_15_70
*1265 FILLER_0_15_9
*1266 FILLER_0_16_11
*1267 FILLER_0_16_160
*1268 FILLER_0_16_17
*1269 FILLER_0_16_172
*1270 FILLER_0_16_186
*1271 FILLER_0_16_194
*1272 FILLER_0_16_197
*1273 FILLER_0_16_207
*1274 FILLER_0_16_219
*1275 FILLER_0_16_231
*1276 FILLER_0_16_243
*1277 FILLER_0_16_251
*1278 FILLER_0_16_253
*1279 FILLER_0_16_26
*1280 FILLER_0_16_261
*1281 FILLER_0_16_285
*1282 FILLER_0_16_29
*1283 FILLER_0_16_290
*1284 FILLER_0_16_3
*1285 FILLER_0_16_35
*1286 FILLER_0_16_39
*1287 FILLER_0_16_54
*1288 FILLER_0_16_63
*1289 FILLER_0_16_75
*1290 FILLER_0_16_83
*1291 FILLER_0_16_85
*1292 FILLER_0_17_107
*1293 FILLER_0_17_129
*1294 FILLER_0_17_158
*1295 FILLER_0_17_166
*1296 FILLER_0_17_169
*1297 FILLER_0_17_181
*1298 FILLER_0_17_213
*1299 FILLER_0_17_223
*1300 FILLER_0_17_225
*1301 FILLER_0_17_241
*1302 FILLER_0_17_253
*1303 FILLER_0_17_260
*1304 FILLER_0_17_272
*1305 FILLER_0_17_28
*1306 FILLER_0_17_297
*1307 FILLER_0_17_3
*1308 FILLER_0_17_35
*1309 FILLER_0_17_47
*1310 FILLER_0_17_57
*1311 FILLER_0_17_75
*1312 FILLER_0_17_79
*1313 FILLER_0_17_83
*1314 FILLER_0_17_95
*1315 FILLER_0_17_99
*1316 FILLER_0_18_104
*1317 FILLER_0_18_11
*1318 FILLER_0_18_112
*1319 FILLER_0_18_124
*1320 FILLER_0_18_135
*1321 FILLER_0_18_139
*1322 FILLER_0_18_141
*1323 FILLER_0_18_15
*1324 FILLER_0_18_153
*1325 FILLER_0_18_173
*1326 FILLER_0_18_194
*1327 FILLER_0_18_213
*1328 FILLER_0_18_225
*1329 FILLER_0_18_231
*1330 FILLER_0_18_250
*1331 FILLER_0_18_262
*1332 FILLER_0_18_27
*1333 FILLER_0_18_274
*1334 FILLER_0_18_29
*1335 FILLER_0_18_295
*1336 FILLER_0_18_3
*1337 FILLER_0_18_50
*1338 FILLER_0_18_71
*1339 FILLER_0_18_77
*1340 FILLER_0_18_81
*1341 FILLER_0_18_85
*1342 FILLER_0_18_97
*1343 FILLER_0_19_109
*1344 FILLER_0_19_113
*1345 FILLER_0_19_125
*1346 FILLER_0_19_133
*1347 FILLER_0_19_138
*1348 FILLER_0_19_145
*1349 FILLER_0_19_15
*1350 FILLER_0_19_157
*1351 FILLER_0_19_165
*1352 FILLER_0_19_185
*1353 FILLER_0_19_197
*1354 FILLER_0_19_204
*1355 FILLER_0_19_216
*1356 FILLER_0_19_225
*1357 FILLER_0_19_237
*1358 FILLER_0_19_249
*1359 FILLER_0_19_27
*1360 FILLER_0_19_273
*1361 FILLER_0_19_279
*1362 FILLER_0_19_287
*1363 FILLER_0_19_3
*1364 FILLER_0_19_39
*1365 FILLER_0_19_51
*1366 FILLER_0_19_55
*1367 FILLER_0_19_57
*1368 FILLER_0_19_69
*1369 FILLER_0_19_97
*1370 FILLER_0_1_10
*1371 FILLER_0_1_102
*1372 FILLER_0_1_111
*1373 FILLER_0_1_121
*1374 FILLER_0_1_129
*1375 FILLER_0_1_141
*1376 FILLER_0_1_147
*1377 FILLER_0_1_151
*1378 FILLER_0_1_157
*1379 FILLER_0_1_163
*1380 FILLER_0_1_167
*1381 FILLER_0_1_169
*1382 FILLER_0_1_222
*1383 FILLER_0_1_273
*1384 FILLER_0_1_279
*1385 FILLER_0_1_297
*1386 FILLER_0_1_3
*1387 FILLER_0_1_33
*1388 FILLER_0_1_45
*1389 FILLER_0_1_53
*1390 FILLER_0_1_57
*1391 FILLER_0_1_69
*1392 FILLER_0_1_81
*1393 FILLER_0_1_90
*1394 FILLER_0_1_94
*1395 FILLER_0_20_118
*1396 FILLER_0_20_161
*1397 FILLER_0_20_169
*1398 FILLER_0_20_176
*1399 FILLER_0_20_180
*1400 FILLER_0_20_192
*1401 FILLER_0_20_197
*1402 FILLER_0_20_209
*1403 FILLER_0_20_223
*1404 FILLER_0_20_227
*1405 FILLER_0_20_231
*1406 FILLER_0_20_239
*1407 FILLER_0_20_245
*1408 FILLER_0_20_251
*1409 FILLER_0_20_253
*1410 FILLER_0_20_257
*1411 FILLER_0_20_261
*1412 FILLER_0_20_273
*1413 FILLER_0_20_285
*1414 FILLER_0_20_297
*1415 FILLER_0_20_3
*1416 FILLER_0_20_40
*1417 FILLER_0_20_64
*1418 FILLER_0_20_7
*1419 FILLER_0_20_79
*1420 FILLER_0_20_83
*1421 FILLER_0_20_85
*1422 FILLER_0_20_93
*1423 FILLER_0_21_104
*1424 FILLER_0_21_113
*1425 FILLER_0_21_132
*1426 FILLER_0_21_144
*1427 FILLER_0_21_152
*1428 FILLER_0_21_156
*1429 FILLER_0_21_169
*1430 FILLER_0_21_181
*1431 FILLER_0_21_187
*1432 FILLER_0_21_195
*1433 FILLER_0_21_203
*1434 FILLER_0_21_217
*1435 FILLER_0_21_240
*1436 FILLER_0_21_252
*1437 FILLER_0_21_263
*1438 FILLER_0_21_275
*1439 FILLER_0_21_279
*1440 FILLER_0_21_28
*1441 FILLER_0_21_281
*1442 FILLER_0_21_293
*1443 FILLER_0_21_3
*1444 FILLER_0_21_40
*1445 FILLER_0_21_52
*1446 FILLER_0_21_60
*1447 FILLER_0_21_64
*1448 FILLER_0_21_7
*1449 FILLER_0_21_70
*1450 FILLER_0_21_82
*1451 FILLER_0_21_86
*1452 FILLER_0_22_103
*1453 FILLER_0_22_115
*1454 FILLER_0_22_119
*1455 FILLER_0_22_131
*1456 FILLER_0_22_139
*1457 FILLER_0_22_141
*1458 FILLER_0_22_153
*1459 FILLER_0_22_165
*1460 FILLER_0_22_181
*1461 FILLER_0_22_192
*1462 FILLER_0_22_202
*1463 FILLER_0_22_214
*1464 FILLER_0_22_224
*1465 FILLER_0_22_232
*1466 FILLER_0_22_241
*1467 FILLER_0_22_249
*1468 FILLER_0_22_25
*1469 FILLER_0_22_253
*1470 FILLER_0_22_265
*1471 FILLER_0_22_277
*1472 FILLER_0_22_284
*1473 FILLER_0_22_29
*1474 FILLER_0_22_296
*1475 FILLER_0_22_3
*1476 FILLER_0_22_41
*1477 FILLER_0_22_53
*1478 FILLER_0_22_58
*1479 FILLER_0_22_65
*1480 FILLER_0_22_77
*1481 FILLER_0_22_83
*1482 FILLER_0_22_85
*1483 FILLER_0_22_91
*1484 FILLER_0_23_108
*1485 FILLER_0_23_11
*1486 FILLER_0_23_113
*1487 FILLER_0_23_125
*1488 FILLER_0_23_133
*1489 FILLER_0_23_139
*1490 FILLER_0_23_15
*1491 FILLER_0_23_151
*1492 FILLER_0_23_155
*1493 FILLER_0_23_161
*1494 FILLER_0_23_167
*1495 FILLER_0_23_169
*1496 FILLER_0_23_179
*1497 FILLER_0_23_191
*1498 FILLER_0_23_199
*1499 FILLER_0_23_204
*1500 FILLER_0_23_212
*1501 FILLER_0_23_217
*1502 FILLER_0_23_223
*1503 FILLER_0_23_225
*1504 FILLER_0_23_237
*1505 FILLER_0_23_249
*1506 FILLER_0_23_257
*1507 FILLER_0_23_27
*1508 FILLER_0_23_270
*1509 FILLER_0_23_274
*1510 FILLER_0_23_281
*1511 FILLER_0_23_291
*1512 FILLER_0_23_3
*1513 FILLER_0_23_39
*1514 FILLER_0_23_51
*1515 FILLER_0_23_55
*1516 FILLER_0_23_57
*1517 FILLER_0_23_63
*1518 FILLER_0_23_67
*1519 FILLER_0_23_79
*1520 FILLER_0_23_96
*1521 FILLER_0_24_100
*1522 FILLER_0_24_112
*1523 FILLER_0_24_132
*1524 FILLER_0_24_144
*1525 FILLER_0_24_15
*1526 FILLER_0_24_155
*1527 FILLER_0_24_173
*1528 FILLER_0_24_185
*1529 FILLER_0_24_193
*1530 FILLER_0_24_197
*1531 FILLER_0_24_220
*1532 FILLER_0_24_23
*1533 FILLER_0_24_232
*1534 FILLER_0_24_246
*1535 FILLER_0_24_253
*1536 FILLER_0_24_264
*1537 FILLER_0_24_270
*1538 FILLER_0_24_277
*1539 FILLER_0_24_286
*1540 FILLER_0_24_298
*1541 FILLER_0_24_3
*1542 FILLER_0_24_33
*1543 FILLER_0_24_47
*1544 FILLER_0_24_59
*1545 FILLER_0_24_63
*1546 FILLER_0_24_67
*1547 FILLER_0_24_71
*1548 FILLER_0_24_82
*1549 FILLER_0_24_88
*1550 FILLER_0_25_108
*1551 FILLER_0_25_113
*1552 FILLER_0_25_118
*1553 FILLER_0_25_130
*1554 FILLER_0_25_134
*1555 FILLER_0_25_146
*1556 FILLER_0_25_15
*1557 FILLER_0_25_158
*1558 FILLER_0_25_164
*1559 FILLER_0_25_183
*1560 FILLER_0_25_195
*1561 FILLER_0_25_207
*1562 FILLER_0_25_219
*1563 FILLER_0_25_223
*1564 FILLER_0_25_225
*1565 FILLER_0_25_248
*1566 FILLER_0_25_260
*1567 FILLER_0_25_266
*1568 FILLER_0_25_27
*1569 FILLER_0_25_272
*1570 FILLER_0_25_279
*1571 FILLER_0_25_287
*1572 FILLER_0_25_3
*1573 FILLER_0_25_33
*1574 FILLER_0_25_46
*1575 FILLER_0_25_54
*1576 FILLER_0_25_57
*1577 FILLER_0_25_70
*1578 FILLER_0_25_78
*1579 FILLER_0_25_84
*1580 FILLER_0_25_96
*1581 FILLER_0_26_108
*1582 FILLER_0_26_117
*1583 FILLER_0_26_137
*1584 FILLER_0_26_141
*1585 FILLER_0_26_15
*1586 FILLER_0_26_153
*1587 FILLER_0_26_157
*1588 FILLER_0_26_161
*1589 FILLER_0_26_173
*1590 FILLER_0_26_195
*1591 FILLER_0_26_206
*1592 FILLER_0_26_214
*1593 FILLER_0_26_220
*1594 FILLER_0_26_228
*1595 FILLER_0_26_234
*1596 FILLER_0_26_246
*1597 FILLER_0_26_253
*1598 FILLER_0_26_265
*1599 FILLER_0_26_269
*1600 FILLER_0_26_27
*1601 FILLER_0_26_284
*1602 FILLER_0_26_29
*1603 FILLER_0_26_296
*1604 FILLER_0_26_3
*1605 FILLER_0_26_41
*1606 FILLER_0_26_47
*1607 FILLER_0_26_53
*1608 FILLER_0_26_65
*1609 FILLER_0_26_73
*1610 FILLER_0_26_83
*1611 FILLER_0_26_88
*1612 FILLER_0_27_102
*1613 FILLER_0_27_11
*1614 FILLER_0_27_113
*1615 FILLER_0_27_121
*1616 FILLER_0_27_133
*1617 FILLER_0_27_145
*1618 FILLER_0_27_157
*1619 FILLER_0_27_16
*1620 FILLER_0_27_165
*1621 FILLER_0_27_169
*1622 FILLER_0_27_181
*1623 FILLER_0_27_229
*1624 FILLER_0_27_241
*1625 FILLER_0_27_250
*1626 FILLER_0_27_262
*1627 FILLER_0_27_274
*1628 FILLER_0_27_28
*1629 FILLER_0_27_281
*1630 FILLER_0_27_293
*1631 FILLER_0_27_3
*1632 FILLER_0_27_36
*1633 FILLER_0_27_49
*1634 FILLER_0_27_55
*1635 FILLER_0_27_57
*1636 FILLER_0_27_62
*1637 FILLER_0_27_74
*1638 FILLER_0_27_86
*1639 FILLER_0_27_98
*1640 FILLER_0_28_106
*1641 FILLER_0_28_11
*1642 FILLER_0_28_114
*1643 FILLER_0_28_126
*1644 FILLER_0_28_136
*1645 FILLER_0_28_156
*1646 FILLER_0_28_16
*1647 FILLER_0_28_168
*1648 FILLER_0_28_180
*1649 FILLER_0_28_192
*1650 FILLER_0_28_197
*1651 FILLER_0_28_204
*1652 FILLER_0_28_216
*1653 FILLER_0_28_22
*1654 FILLER_0_28_223
*1655 FILLER_0_28_235
*1656 FILLER_0_28_247
*1657 FILLER_0_28_251
*1658 FILLER_0_28_253
*1659 FILLER_0_28_265
*1660 FILLER_0_28_277
*1661 FILLER_0_28_289
*1662 FILLER_0_28_29
*1663 FILLER_0_28_297
*1664 FILLER_0_28_3
*1665 FILLER_0_28_41
*1666 FILLER_0_28_46
*1667 FILLER_0_28_66
*1668 FILLER_0_28_78
*1669 FILLER_0_28_83
*1670 FILLER_0_28_85
*1671 FILLER_0_28_91
*1672 FILLER_0_28_95
*1673 FILLER_0_29_101
*1674 FILLER_0_29_105
*1675 FILLER_0_29_111
*1676 FILLER_0_29_113
*1677 FILLER_0_29_124
*1678 FILLER_0_29_135
*1679 FILLER_0_29_143
*1680 FILLER_0_29_149
*1681 FILLER_0_29_16
*1682 FILLER_0_29_161
*1683 FILLER_0_29_167
*1684 FILLER_0_29_169
*1685 FILLER_0_29_181
*1686 FILLER_0_29_193
*1687 FILLER_0_29_199
*1688 FILLER_0_29_206
*1689 FILLER_0_29_218
*1690 FILLER_0_29_232
*1691 FILLER_0_29_240
*1692 FILLER_0_29_248
*1693 FILLER_0_29_256
*1694 FILLER_0_29_264
*1695 FILLER_0_29_271
*1696 FILLER_0_29_279
*1697 FILLER_0_29_293
*1698 FILLER_0_29_3
*1699 FILLER_0_29_33
*1700 FILLER_0_29_41
*1701 FILLER_0_29_46
*1702 FILLER_0_29_54
*1703 FILLER_0_29_57
*1704 FILLER_0_29_72
*1705 FILLER_0_29_84
*1706 FILLER_0_29_92
*1707 FILLER_0_2_137
*1708 FILLER_0_2_141
*1709 FILLER_0_2_195
*1710 FILLER_0_2_24
*1711 FILLER_0_2_248
*1712 FILLER_0_2_288
*1713 FILLER_0_2_296
*1714 FILLER_0_2_3
*1715 FILLER_0_2_46
*1716 FILLER_0_2_66
*1717 FILLER_0_2_73
*1718 FILLER_0_30_109
*1719 FILLER_0_30_11
*1720 FILLER_0_30_121
*1721 FILLER_0_30_133
*1722 FILLER_0_30_139
*1723 FILLER_0_30_141
*1724 FILLER_0_30_154
*1725 FILLER_0_30_159
*1726 FILLER_0_30_17
*1727 FILLER_0_30_173
*1728 FILLER_0_30_185
*1729 FILLER_0_30_193
*1730 FILLER_0_30_197
*1731 FILLER_0_30_209
*1732 FILLER_0_30_221
*1733 FILLER_0_30_233
*1734 FILLER_0_30_245
*1735 FILLER_0_30_251
*1736 FILLER_0_30_261
*1737 FILLER_0_30_27
*1738 FILLER_0_30_273
*1739 FILLER_0_30_292
*1740 FILLER_0_30_298
*1741 FILLER_0_30_3
*1742 FILLER_0_30_35
*1743 FILLER_0_30_47
*1744 FILLER_0_30_59
*1745 FILLER_0_30_71
*1746 FILLER_0_30_78
*1747 FILLER_0_30_85
*1748 FILLER_0_30_97
*1749 FILLER_0_31_109
*1750 FILLER_0_31_118
*1751 FILLER_0_31_124
*1752 FILLER_0_31_136
*1753 FILLER_0_31_148
*1754 FILLER_0_31_15
*1755 FILLER_0_31_154
*1756 FILLER_0_31_165
*1757 FILLER_0_31_169
*1758 FILLER_0_31_181
*1759 FILLER_0_31_189
*1760 FILLER_0_31_19
*1761 FILLER_0_31_196
*1762 FILLER_0_31_219
*1763 FILLER_0_31_225
*1764 FILLER_0_31_256
*1765 FILLER_0_31_268
*1766 FILLER_0_31_287
*1767 FILLER_0_31_3
*1768 FILLER_0_31_38
*1769 FILLER_0_31_50
*1770 FILLER_0_31_57
*1771 FILLER_0_31_69
*1772 FILLER_0_31_81
*1773 FILLER_0_31_85
*1774 FILLER_0_31_97
*1775 FILLER_0_32_108
*1776 FILLER_0_32_114
*1777 FILLER_0_32_125
*1778 FILLER_0_32_137
*1779 FILLER_0_32_141
*1780 FILLER_0_32_15
*1781 FILLER_0_32_153
*1782 FILLER_0_32_165
*1783 FILLER_0_32_173
*1784 FILLER_0_32_180
*1785 FILLER_0_32_209
*1786 FILLER_0_32_221
*1787 FILLER_0_32_229
*1788 FILLER_0_32_236
*1789 FILLER_0_32_248
*1790 FILLER_0_32_253
*1791 FILLER_0_32_265
*1792 FILLER_0_32_27
*1793 FILLER_0_32_289
*1794 FILLER_0_32_29
*1795 FILLER_0_32_297
*1796 FILLER_0_32_3
*1797 FILLER_0_32_36
*1798 FILLER_0_32_48
*1799 FILLER_0_32_63
*1800 FILLER_0_32_69
*1801 FILLER_0_32_73
*1802 FILLER_0_32_81
*1803 FILLER_0_32_85
*1804 FILLER_0_32_93
*1805 FILLER_0_32_99
*1806 FILLER_0_33_110
*1807 FILLER_0_33_122
*1808 FILLER_0_33_134
*1809 FILLER_0_33_146
*1810 FILLER_0_33_15
*1811 FILLER_0_33_161
*1812 FILLER_0_33_178
*1813 FILLER_0_33_199
*1814 FILLER_0_33_215
*1815 FILLER_0_33_223
*1816 FILLER_0_33_225
*1817 FILLER_0_33_237
*1818 FILLER_0_33_249
*1819 FILLER_0_33_260
*1820 FILLER_0_33_27
*1821 FILLER_0_33_272
*1822 FILLER_0_33_281
*1823 FILLER_0_33_293
*1824 FILLER_0_33_3
*1825 FILLER_0_33_39
*1826 FILLER_0_33_51
*1827 FILLER_0_33_55
*1828 FILLER_0_33_57
*1829 FILLER_0_33_77
*1830 FILLER_0_33_85
*1831 FILLER_0_33_97
*1832 FILLER_0_34_105
*1833 FILLER_0_34_114
*1834 FILLER_0_34_129
*1835 FILLER_0_34_137
*1836 FILLER_0_34_148
*1837 FILLER_0_34_15
*1838 FILLER_0_34_160
*1839 FILLER_0_34_172
*1840 FILLER_0_34_187
*1841 FILLER_0_34_195
*1842 FILLER_0_34_197
*1843 FILLER_0_34_209
*1844 FILLER_0_34_221
*1845 FILLER_0_34_226
*1846 FILLER_0_34_243
*1847 FILLER_0_34_251
*1848 FILLER_0_34_253
*1849 FILLER_0_34_259
*1850 FILLER_0_34_27